version 3
run BurstyTraffic-0-20221214-13:28:01-99312
attr configname BurstyTraffic
attr datetime 20221214-13:28:01
attr datetimef 20221214-132801
attr experiment BurstyTraffic
attr inifile omnetpp.ini
attr iterationvars "$switchServiceTimeFactor=1, $controllerServiceTimeFactor=1"
attr iterationvarsd switchServiceTimeFactor=1/controllerServiceTimeFactor=1
attr iterationvarsf switchServiceTimeFactor=1,controllerServiceTimeFactor=1-
attr measurement "$switchServiceTimeFactor=1, $controllerServiceTimeFactor=1"
attr network Network
attr processid 99312
attr repetition 0
attr replication #0
attr resultdir results
attr runnumber 0
attr seedset 0
itervar controllerServiceTimeFactor 1
itervar switchServiceTimeFactor 1
config image-path ../../inet/images:../../openflow/images
config **.server*.app[0].typename UdpApp
config **.server*.app[0].io.localPort 1000
config **.server*.app[0].io.destAddress "\"client1\""
config **.server*.app[0].io.destPort 1000
config **.server*.app[0].source.typename BurstyPacketProducer
config **.server*.app[0].source.normalProducer.productionInterval 1s
config **.server*.app[0].source.normalProducer.packetLength 10000B
config **.server*.app[0].source.burstProducer.productionInterval 0.1s
config **.server*.app[0].source.burstProducer.packetLength 1000B
config **.server*.app[0].source.scheduler.waitIntervals "\"40 4\""
config **.server*.app[0].source.scheduler.transitionProbabilities "\"0 1 1 0\""
config **.open_flow_switch*.OF_Switch.connectAddress "\"open_flow_controller1\""
config **.open_flow_switch*.OF_Switch.connectAt uniform(0s,1s)
config **.open_flow_switch*.etherMAC[*].mac.promiscuous true
config **.OF_Switch.bufferCapacity 100
config **.OF_Switch.serviceTime "0.000035s * (1)"
config **.open_flow_controller*.serviceTime "0.000005556s *(1)"
config **.open_flow_controller*.numControllerApps 3
config **.open_flow_controller*.controllerApps[0].typename LLDPForwarding
config **.open_flow_controller*.controllerApps[0].flowModIdleTimeOut 5
config **.open_flow_controller*.controllerApps[0].ignoreArpRequests true
config **.open_flow_controller*.controllerApps[1].typename LLDPAgent
config **.open_flow_controller*.controllerApps[1].flowModIdleTimeOut 140
config **.open_flow_controller*.controllerApps[2].typename ARPResponder
config **.ppp[*].queue.packetCapacity 10
config **.open_flow_switch*.tcp.mss 800
config **.arp.cacheTimeout 60s
config *.configurator.config "xmldoc(\"ipv4config.xml\")"
config network Network
config output-vector-file results/omnetpp.ini/omnetpp.ini-0.vec
config output-scalar-file results/omnetpp.ini/omnetpp.ini-0.sca
config sim-time-limit 100s
config repeat 1
config seed-set 0
config **.rtt.result-recording-modes +vector,-stats
config **.queueSize.result-recording-modes +vector,+stats
config **.bufferSize.result-recording-modes +vector,+stats
config **.waitingTime.result-recording-modes +vector,+stats
config **.packets.result-recording-modes +count
config **.packetBytes.result-recording-modes +sum
config **.packets*.scalar-recording true
config **.packetBytes*.scalar-recording true
config **.droppedDataRate.result-recording-modes default,all
config **.numPacketIn*.scalar-recording true
config **.bufferSize*.vector-recording true
config **.queueSize*.vector-recording true
config **.waitingTime*.vector-recording true
config **.flowTable**.scalar-recording true
config **.pingApp[*].rtt*.vector-recording true
config **.controllerApps[*].*.scalar-recording true
config **.pingApp[*].numLost*.scalar-recording true
config **.pingApp[*].numOutOfOrderArrivals*.scalar-recording true
config **.vector-recording false
config **.scalar-recording false
config **.spanningTree.startNode 4
config **.highlightActivePorts true
config **.client*.numApps 1
config **.server*.numApps 1
config **.client*.app[0].typename UdpApp
config **.client*.app[0].io.localPort 1000
config **.client*.app[0].io.destAddress "\"server1\""
config **.client*.app[0].io.destPort 1000
config **.client*.app[0].source.productionInterval 1s
config **.client*.app[0].source.packetLength "intuniform(10000B, 20000B)"
config **.client*.app[0].source.packetData "intuniform(0, 1)"

vector 0 Network.open_flow_switch1.OF_Switch queueSize:vector ETV
attr interpolationmode none
attr recordingmode vector
attr title QueueSize
vector 1 Network.open_flow_switch1.OF_Switch bufferSize:vector ETV
attr interpolationmode none
attr recordingmode vector
attr title BufferSize
vector 2 Network.open_flow_switch2.OF_Switch queueSize:vector ETV
attr interpolationmode none
attr recordingmode vector
attr title QueueSize
vector 3 Network.open_flow_switch2.OF_Switch bufferSize:vector ETV
attr interpolationmode none
attr recordingmode vector
attr title BufferSize
vector 4 Network.open_flow_switch3.OF_Switch queueSize:vector ETV
attr interpolationmode none
attr recordingmode vector
attr title QueueSize
vector 5 Network.open_flow_switch3.OF_Switch bufferSize:vector ETV
attr interpolationmode none
attr recordingmode vector
attr title BufferSize
vector 6 Network.open_flow_switch1.OF_Switch waitingTime:vector ETV
attr interpolationmode none
attr recordingmode vector
attr title WaitingTime
vector 7 Network.open_flow_switch2.OF_Switch waitingTime:vector ETV
attr interpolationmode none
attr recordingmode vector
attr title WaitingTime
vector 8 Network.open_flow_switch3.OF_Switch waitingTime:vector ETV
attr interpolationmode none
attr recordingmode vector
attr title WaitingTime
vector 9 Network.open_flow_controller1.OF_Controller queueSize:vector ETV
attr interpolationmode none
attr recordingmode vector
attr title QueueSize
vector 10 Network.open_flow_controller1.OF_Controller waitingTime:vector ETV
attr interpolationmode none
attr recordingmode vector
attr title WaitingTime
0	73	0.00000676	0
0	74	0.00000676	1
0	75	0.00000676	2
0	76	0.00000676	3
0	77	0.00000676	4
0	213	0.548901982304	0
0	246	0.548929342304	1
0	317	0.549017902304	0
0	894	1.00000676	0
0	895	1.00000676	1
0	896	1.00000676	2
0	897	1.00000676	3
0	898	1.00000676	4
0	1042	1.00008256	3
0	1220	1.00013164	3
0	1373	1.00017564	3
0	1499	1.00021964	2
0	1568	1.00026364	2
0	1842	1.000403712	0
0	1932	1.000479512	0
0	2073	1.00051996	0
0	2192	1.000555032	0
0	2349	1.000644352	0
0	2394	1.000678072	1
0	2463	1.000720152	0
0	2559	1.00076604	0
0	2571	1.000767392	1
0	2598	1.000801112	1
0	2687	1.000890432	0
0	2712	1.000924152	1
0	2899	1.001013472	0
0	2909	1.001047192	1
0	3029	1.001136512	0
0	3085	1.001170232	1
0	3145	1.001259552	0
0	3161	1.001265112	1
0	3254	1.001382592	0
0	3270	1.001388152	1
0	3367	1.001505632	0
0	3383	1.001511192	1
0	3476	1.001624832	0
0	3492	1.001634232	1
0	3585	1.001747872	0
0	3601	1.001757272	1
0	3696	1.001870912	0
0	3712	1.001880312	1
0	3799	1.001993952	0
0	3815	1.002003352	1
0	3880	1.002098232	0
0	3910	1.002116992	1
0	4009	1.002240032	0
0	4109	1.002363072	0
0	4201	1.002486112	0
0	4297	1.002609152	0
0	4434	1.002732192	0
0	4451	1.002855232	0
0	4468	1.002978272	0
0	4485	1.003101312	0
0	4489	1.003108032	1
0	4652	2.00000676	0
0	4653	2.00000676	1
0	4654	2.00000676	2
0	4655	2.00000676	3
0	4715	2.00008256	2
0	4790	2.00012308	2
0	4825	2.00014572	3
0	4933	2.00018972	2
0	5010	2.00023372	2
0	5031	2.00024612	3
0	5125	2.00028116	3
0	5209	2.00036916	1
0	5217	2.00039056	2
0	5228	2.0004042	2
0	5314	2.0004922	1
0	5327	2.0005136	1
0	5345	2.00053292	1
0	5431	2.00061524	0
0	5437	2.00063664	1
0	5479	2.00067292	1
0	5546	2.00073828	0
0	5552	2.00075968	1
0	5594	2.00079596	1
0	5662	2.00086132	0
0	5669	2.00088272	1
0	5709	2.000919	1
0	5773	2.00098436	0
0	5778	2.00099212	1
0	5782	2.00100576	2
0	5793	2.00101388	3
0	5889	2.0011288	0
0	5994	2.00125184	0
0	6086	2.00137488	0
0	6178	2.00149792	0
0	6184	2.00150792	1
0	6335	2.00163096	0
0	6366	2.001754	0
0	6387	2.00187704	0
0	6406	2.00200008	0
0	6431	2.00212312	0
0	6448	2.00224616	0
0	6465	2.0023692	0
0	6486	2.00249224	0
0	6503	2.00261528	0
0	6598	2.00273832	0
0	6657	2.00286136	0
0	6758	2.002983636	0
0	6764	2.0029844	1
0	6844	2.00310744	0
0	6860	2.00316496	0
0	6877	2.003288	0
0	6894	2.00341104	0
0	6911	2.00353408	0
0	6928	2.00365712	0
0	6945	2.00378016	0
0	6962	2.0039032	0
0	6979	2.00402624	0
0	7000	2.00414928	0
0	7008	2.00420704	0
0	7272	3.00000676	0
0	7273	3.00000676	1
0	7274	3.00000676	2
0	7334	3.00008256	1
0	7412	3.00012308	1
0	7413	3.00012308	2
0	7448	3.00014572	3
0	7533	3.00018972	2
0	7594	3.00024612	2
0	7595	3.00024612	3
0	7639	3.00028116	3
0	7729	3.00036916	1
0	7730	3.00036916	2
0	7736	3.00039056	3
0	7749	3.0004042	3
0	7843	3.0004922	2
0	7844	3.0004922	3
0	7852	3.0005136	3
0	7868	3.00052724	4
0	7964	3.00061524	2
0	7965	3.00061524	3
0	7971	3.00063664	4
0	7984	3.00065028	4
0	8083	3.00073828	3
0	8084	3.00073828	4
0	8092	3.00075968	4
0	8103	3.00077332	5
0	8205	3.00086132	3
0	8206	3.00086132	4
0	8215	3.00088272	4
0	8224	3.00089636	5
0	8320	3.00098436	4
0	8321	3.00098436	5
0	8328	3.00099124	5
0	8332	3.00100576	6
0	8435	3.0011074	4
0	8436	3.0011074	5
0	8441	3.00111412	6
0	8447	3.0011288	6
0	8542	3.00122588	5
0	8552	3.00125184	5
0	8658	3.00137488	2
0	8754	3.00149792	0
0	8846	3.00162096	0
0	8903	3.0016588	0
0	9379	3.004330396	0
0	9599	4.00000676	0
0	9600	4.00000676	1
0	9660	4.00008256	0
0	9730	4.00012308	0
0	9731	4.00012308	1
0	9732	4.00012308	2
0	9747	4.00014572	3
0	9858	4.00024612	1
0	9859	4.00024612	2
0	9860	4.00024612	3
0	9918	4.00028116	3
0	10008	4.00036916	1
0	10009	4.00036916	2
0	10010	4.00036916	3
0	10016	4.00040188	4
0	10033	4.0004042	4
0	10126	4.0004922	3
0	10127	4.0004922	4
0	10128	4.0004922	5
0	10136	4.00052492	5
0	10156	4.00052724	6
0	10251	4.00061524	4
0	10252	4.00061524	5
0	10253	4.00061524	6
0	10259	4.00064796	7
0	10276	4.00065028	7
0	10374	4.00073828	6
0	10375	4.00073828	7
0	10376	4.00073828	8
0	10384	4.000771	8
0	10399	4.00077332	9
0	10495	4.00086132	7
0	10496	4.00086132	8
0	10497	4.00086132	9
0	10511	4.00089404	9
0	10524	4.00089636	10
0	10614	4.00098436	9
0	10615	4.00098436	10
0	10616	4.00098436	11
0	10621	4.00099124	12
0	10627	4.00101708	12
0	10733	4.0011074	10
0	10734	4.0011074	11
0	10735	4.0011074	12
0	10740	4.00113684	13
0	10746	4.00114012	13
0	10847	4.00123044	12
0	10848	4.00123044	13
0	10855	4.00126316	13
0	10919	4.0013046	13
0	10957	4.00135348	12
0	10958	4.00135348	13
0	11030	4.00142764	12
0	11044	4.00143404	13
0	11067	4.00147652	13
0	11143	4.00155068	12
0	11175	4.00157684	12
0	11268	4.00167372	10
0	11289	4.00179676	8
0	11312	4.0019198	5
0	11333	4.00204284	3
0	11356	4.00216588	0
0	11366	4.00227364	0
0	11871	4.005287196	0
0	12223	5.00000676	0
0	12278	5.00008256	0
0	12318	5.00012272	0
0	12334	5.00012308	1
0	12335	5.00012308	2
0	12336	5.00012308	3
0	12337	5.00012308	4
0	12517	5.00024612	2
0	12518	5.00024612	3
0	12519	5.00024612	4
0	12520	5.00024612	5
0	12535	5.00028116	5
0	12539	5.00028756	6
0	12636	5.00036916	4
0	12637	5.00036916	5
0	12638	5.00036916	6
0	12639	5.00036916	7
0	12654	5.0004042	7
0	12658	5.0004106	8
0	12758	5.0004922	7
0	12759	5.0004922	8
0	12760	5.0004922	9
0	12761	5.0004922	10
0	12776	5.00052724	10
0	12780	5.00053364	11
0	12887	5.00061524	9
0	12888	5.00061524	10
0	12889	5.00061524	11
0	12890	5.00061524	12
0	12905	5.00065028	12
0	12909	5.00065668	13
0	13009	5.00073828	12
0	13010	5.00073828	13
0	13011	5.00073828	14
0	13012	5.00073828	15
0	13027	5.00077332	15
0	13031	5.00077972	16
0	13139	5.00086132	14
0	13140	5.00086132	15
0	13141	5.00086132	16
0	13142	5.00086132	17
0	13156	5.00089636	17
0	13160	5.00090276	18
0	13257	5.00098436	17
0	13258	5.00098436	18
0	13259	5.00098436	19
0	13260	5.00098436	20
0	13265	5.00099124	21
0	13281	5.00102252	21
0	13285	5.0010258	22
0	13337	5.00105516	22
0	13366	5.00107892	22
0	13378	5.00109884	23
0	13387	5.0011074	23
0	13447	5.00118204	22
0	13484	5.00122188	22
0	13630	5.00134492	20
0	13688	5.00146796	17
0	13709	5.001591	15
0	13737	5.00171404	12
0	13766	5.00183708	10
0	13789	5.00196012	7
0	13812	5.00208316	4
0	13833	5.0022062	2
0	13854	5.00232924	0
0	13858	5.00234924	1
0	13877	5.00247228	0
0	13894	5.00259532	0
0	13911	5.00271836	0
0	13928	5.0028414	0
0	13945	5.00296444	0
0	13962	5.00308748	0
0	13979	5.00321052	0
0	13996	5.00333356	0
0	14013	5.0034566	0
0	14030	5.00357964	0
0	14047	5.00370268	0
0	14057	5.0037742	0
0	14501	5.005740236	0
0	15031	6.00012308	0
0	15032	6.00012308	1
0	15033	6.00012308	2
0	15034	6.00012308	3
0	15035	6.00012308	4
0	15138	6.00024612	2
0	15139	6.00024612	3
0	15140	6.00024612	4
0	15141	6.00024612	5
0	15142	6.00024612	6
0	15161	6.00028116	6
0	15257	6.00036916	4
0	15258	6.00036916	5
0	15259	6.00036916	6
0	15260	6.00036916	7
0	15261	6.00036916	8
0	15280	6.0004042	8
0	15379	6.0004922	7
0	15380	6.0004922	8
0	15381	6.0004922	9
0	15382	6.0004922	10
0	15383	6.0004922	11
0	15402	6.00052724	11
0	15503	6.00061524	9
0	15504	6.00061524	10
0	15505	6.00061524	11
0	15506	6.00061524	12
0	15507	6.00061524	13
0	15531	6.00065028	13
0	15630	6.00073828	12
0	15631	6.00073828	13
0	15632	6.00073828	14
0	15633	6.00073828	15
0	15634	6.00073828	16
0	15653	6.00077332	16
0	15760	6.00086132	14
0	15761	6.00086132	15
0	15762	6.00086132	16
0	15763	6.00086132	17
0	15764	6.00086132	18
0	15782	6.00089636	18
0	15863	6.00097252	17
0	15879	6.00098436	18
0	15880	6.00098436	19
0	15881	6.00098436	20
0	15882	6.00098436	21
0	15887	6.00099124	22
0	15983	6.001079	20
0	15999	6.0011074	20
0	16000	6.0011074	21
0	16001	6.0011074	22
0	16034	6.00116052	22
0	16104	6.00123044	21
0	16105	6.00123044	22
0	16211	6.00135348	19
0	16212	6.00135348	20
0	16257	6.00141732	20
0	16283	6.0014242	20
0	17238	7.00012308	0
0	17239	7.00012308	1
0	17240	7.00012308	2
0	17241	7.00012308	3
0	17242	7.00012308	4
0	17345	7.00024612	2
0	17346	7.00024612	3
0	17347	7.00024612	4
0	17348	7.00024612	5
0	17349	7.00024612	6
0	17368	7.00028116	6
0	17464	7.00036916	4
0	17465	7.00036916	5
0	17466	7.00036916	6
0	17467	7.00036916	7
0	17468	7.00036916	8
0	17487	7.0004042	8
0	17586	7.0004922	7
0	17587	7.0004922	8
0	17588	7.0004922	9
0	17589	7.0004922	10
0	17590	7.0004922	11
0	17609	7.00052724	11
0	17710	7.00061524	9
0	17711	7.00061524	10
0	17712	7.00061524	11
0	17713	7.00061524	12
0	17714	7.00061524	13
0	17738	7.00065028	13
0	17837	7.00073828	12
0	17838	7.00073828	13
0	17839	7.00073828	14
0	17840	7.00073828	15
0	17841	7.00073828	16
0	17860	7.00077332	16
0	17967	7.00086132	14
0	17968	7.00086132	15
0	17969	7.00086132	16
0	17970	7.00086132	17
0	17971	7.00086132	18
0	17989	7.00089636	18
0	18085	7.00098436	17
0	18086	7.00098436	18
0	18087	7.00098436	19
0	18088	7.00098436	20
0	18089	7.00098436	21
0	18094	7.00099124	22
0	18208	7.0011074	19
0	18209	7.0011074	20
0	18210	7.0011074	21
0	18211	7.0011074	22
0	18212	7.0011074	23
0	18228	7.00114804	23
0	18321	7.00123044	22
0	18322	7.00123044	23
0	18323	7.00123044	24
0	18324	7.00123044	25
0	18415	7.00131532	23
0	18437	7.00135348	23
0	18438	7.00135348	24
0	18439	7.00135348	25
0	18523	7.0014374	24
0	18547	7.00147652	24
0	18548	7.00147652	25
0	18595	7.00153684	24
0	18651	7.00159956	23
0	18695	7.0016494	23
0	19572	8.00012308	0
0	19573	8.00012308	1
0	19574	8.00012308	2
0	19575	8.00012308	3
0	19576	8.00012308	4
0	19679	8.00024612	2
0	19680	8.00024612	3
0	19681	8.00024612	4
0	19682	8.00024612	5
0	19683	8.00024612	6
0	19702	8.00028116	6
0	19798	8.00036916	4
0	19799	8.00036916	5
0	19800	8.00036916	6
0	19801	8.00036916	7
0	19802	8.00036916	8
0	19821	8.0004042	8
0	19920	8.0004922	7
0	19921	8.0004922	8
0	19922	8.0004922	9
0	19923	8.0004922	10
0	19924	8.0004922	11
0	19943	8.00052724	11
0	20044	8.00061524	9
0	20045	8.00061524	10
0	20046	8.00061524	11
0	20047	8.00061524	12
0	20048	8.00061524	13
0	20072	8.00065028	13
0	20171	8.00073828	12
0	20172	8.00073828	13
0	20173	8.00073828	14
0	20174	8.00073828	15
0	20175	8.00073828	16
0	20194	8.00077332	16
0	20301	8.00086132	14
0	20302	8.00086132	15
0	20303	8.00086132	16
0	20304	8.00086132	17
0	20305	8.00086132	18
0	20323	8.00089636	18
0	20344	8.00091564	19
0	20420	8.00098436	18
0	20421	8.00098436	19
0	20422	8.00098436	20
0	20423	8.00098436	21
0	20428	8.00099124	22
0	20452	8.00103588	21
0	20466	8.00103724	22
0	20541	8.0011074	21
0	20542	8.0011074	22
0	20547	8.00112348	23
0	20642	8.00123044	21
0	20746	8.00135348	18
0	20843	8.00147652	16
0	20855	8.00153244	15
0	21581	9.00012308	0
0	21582	9.00012308	1
0	21583	9.00012308	2
0	21584	9.00012308	3
0	21585	9.00012308	4
0	21688	9.00024612	2
0	21689	9.00024612	3
0	21690	9.00024612	4
0	21691	9.00024612	5
0	21692	9.00024612	6
0	21711	9.00028116	6
0	21807	9.00036916	4
0	21808	9.00036916	5
0	21809	9.00036916	6
0	21810	9.00036916	7
0	21811	9.00036916	8
0	21830	9.0004042	8
0	21929	9.0004922	7
0	21930	9.0004922	8
0	21931	9.0004922	9
0	21932	9.0004922	10
0	21933	9.0004922	11
0	21952	9.00052724	11
0	22053	9.00061524	9
0	22054	9.00061524	10
0	22055	9.00061524	11
0	22056	9.00061524	12
0	22057	9.00061524	13
0	22081	9.00065028	13
0	22180	9.00073828	12
0	22181	9.00073828	13
0	22182	9.00073828	14
0	22183	9.00073828	15
0	22184	9.00073828	16
0	22203	9.00077332	16
0	22310	9.00086132	14
0	22311	9.00086132	15
0	22312	9.00086132	16
0	22313	9.00086132	17
0	22314	9.00086132	18
0	22332	9.00089636	18
0	22428	9.00098436	17
0	22429	9.00098436	18
0	22430	9.00098436	19
0	22431	9.00098436	20
0	22432	9.00098436	21
0	22437	9.00099124	22
0	22518	9.0010654	21
0	22552	9.0011074	20
0	22553	9.0011074	21
0	22554	9.0011074	22
0	22555	9.0011074	23
0	22639	9.00119148	22
0	22661	9.00123044	22
0	22662	9.00123044	23
0	22663	9.00123044	24
0	22800	9.00135348	21
0	22801	9.00135348	22
0	22802	9.00135348	23
0	22843	9.00137804	24
0	22859	9.0013954	24
0	22880	9.00147572	23
0	23686	10.00012308	0
0	23687	10.00012308	1
0	23688	10.00012308	2
0	23689	10.00012308	3
0	23690	10.00012308	4
0	23793	10.00024612	2
0	23794	10.00024612	3
0	23795	10.00024612	4
0	23796	10.00024612	5
0	23797	10.00024612	6
0	23816	10.00028116	6
0	23912	10.00036916	4
0	23913	10.00036916	5
0	23914	10.00036916	6
0	23915	10.00036916	7
0	23916	10.00036916	8
0	23935	10.0004042	8
0	24034	10.0004922	7
0	24035	10.0004922	8
0	24036	10.0004922	9
0	24037	10.0004922	10
0	24038	10.0004922	11
0	24057	10.00052724	11
0	24158	10.00061524	9
0	24159	10.00061524	10
0	24160	10.00061524	11
0	24161	10.00061524	12
0	24162	10.00061524	13
0	24186	10.00065028	13
0	24285	10.00073828	12
0	24286	10.00073828	13
0	24287	10.00073828	14
0	24288	10.00073828	15
0	24289	10.00073828	16
0	24308	10.00077332	16
0	24398	10.00085772	15
0	24416	10.00086132	15
0	24417	10.00086132	16
0	24418	10.00086132	17
0	24419	10.00086132	18
0	24437	10.00089636	18
0	24530	10.00098436	17
0	24531	10.00098436	18
0	24532	10.00098436	19
0	24533	10.00098436	20
0	24538	10.00099124	21
0	24649	10.0011074	18
0	24650	10.0011074	19
0	24651	10.0011074	20
0	24652	10.0011074	21
0	24719	10.00118164	20
0	24758	10.00123044	20
0	24759	10.00123044	21
0	24760	10.00123044	22
0	24792	10.00127588	22
0	24919	10.00135348	20
0	24920	10.00135348	21
0	24953	10.00141236	21
0	24966	10.00143268	21
0	25740	11.00012308	0
0	25741	11.00012308	1
0	25742	11.00012308	2
0	25743	11.00012308	3
0	25744	11.00012308	4
0	25847	11.00024612	2
0	25848	11.00024612	3
0	25849	11.00024612	4
0	25850	11.00024612	5
0	25851	11.00024612	6
0	25870	11.00028116	6
0	25966	11.00036916	4
0	25967	11.00036916	5
0	25968	11.00036916	6
0	25969	11.00036916	7
0	25970	11.00036916	8
0	25989	11.0004042	8
0	26088	11.0004922	7
0	26089	11.0004922	8
0	26090	11.0004922	9
0	26091	11.0004922	10
0	26092	11.0004922	11
0	26111	11.00052724	11
0	26212	11.00061524	9
0	26213	11.00061524	10
0	26214	11.00061524	11
0	26215	11.00061524	12
0	26216	11.00061524	13
0	26240	11.00065028	13
0	26339	11.00073828	12
0	26340	11.00073828	13
0	26341	11.00073828	14
0	26342	11.00073828	15
0	26343	11.00073828	16
0	26362	11.00077332	16
0	26469	11.00086132	14
0	26470	11.00086132	15
0	26471	11.00086132	16
0	26472	11.00086132	17
0	26473	11.00086132	18
0	26491	11.00089636	18
0	26546	11.00093444	18
0	26588	11.00098436	18
0	26589	11.00098436	19
0	26590	11.00098436	20
0	26591	11.00098436	21
0	26596	11.00099124	22
0	26618	11.00102996	22
0	26709	11.0011074	20
0	26710	11.0011074	21
0	26711	11.0011074	22
0	26809	11.00123044	20
0	26810	11.00123044	21
0	26811	11.00123044	22
0	26837	11.00133132	20
0	26846	11.00135348	20
0	26847	11.00135348	21
0	26876	11.00147652	19
0	26877	11.00147652	20
0	26889	11.00152388	19
0	26902	11.00156732	19
0	27692	12.00012308	0
0	27693	12.00012308	1
0	27694	12.00012308	2
0	27695	12.00012308	3
0	27696	12.00012308	4
0	27799	12.00024612	2
0	27800	12.00024612	3
0	27801	12.00024612	4
0	27802	12.00024612	5
0	27803	12.00024612	6
0	27822	12.00028116	6
0	27918	12.00036916	4
0	27919	12.00036916	5
0	27920	12.00036916	6
0	27921	12.00036916	7
0	27922	12.00036916	8
0	27941	12.0004042	8
0	28040	12.0004922	7
0	28041	12.0004922	8
0	28042	12.0004922	9
0	28043	12.0004922	10
0	28044	12.0004922	11
0	28063	12.00052724	11
0	28164	12.00061524	9
0	28165	12.00061524	10
0	28166	12.00061524	11
0	28167	12.00061524	12
0	28168	12.00061524	13
0	28192	12.00065028	13
0	28291	12.00073828	12
0	28292	12.00073828	13
0	28293	12.00073828	14
0	28294	12.00073828	15
0	28295	12.00073828	16
0	28314	12.00077332	16
0	28421	12.00086132	14
0	28422	12.00086132	15
0	28423	12.00086132	16
0	28424	12.00086132	17
0	28425	12.00086132	18
0	28443	12.00089636	18
0	28539	12.00098436	17
0	28540	12.00098436	18
0	28541	12.00098436	19
0	28542	12.00098436	20
0	28543	12.00098436	21
0	28548	12.00099124	22
0	28662	12.0011074	19
0	28663	12.0011074	20
0	28664	12.0011074	21
0	28665	12.0011074	22
0	28666	12.0011074	23
0	28689	12.0011554	23
0	28695	12.00116004	24
0	28776	12.00123044	23
0	28777	12.00123044	24
0	28778	12.00123044	25
0	28887	12.00135348	22
0	28888	12.00135348	23
0	28889	12.00135348	24
0	28896	12.00138388	24
0	28960	12.0014282	24
0	28998	12.00147652	24
0	29037	12.00153076	23
0	29991	13.00012308	0
0	29992	13.00012308	1
0	29993	13.00012308	2
0	29994	13.00012308	3
0	29995	13.00012308	4
0	30098	13.00024612	2
0	30099	13.00024612	3
0	30100	13.00024612	4
0	30101	13.00024612	5
0	30102	13.00024612	6
0	30121	13.00028116	6
0	30217	13.00036916	4
0	30218	13.00036916	5
0	30219	13.00036916	6
0	30220	13.00036916	7
0	30221	13.00036916	8
0	30240	13.0004042	8
0	30339	13.0004922	7
0	30340	13.0004922	8
0	30341	13.0004922	9
0	30342	13.0004922	10
0	30343	13.0004922	11
0	30362	13.00052724	11
0	30463	13.00061524	9
0	30464	13.00061524	10
0	30465	13.00061524	11
0	30466	13.00061524	12
0	30467	13.00061524	13
0	30491	13.00065028	13
0	30590	13.00073828	12
0	30591	13.00073828	13
0	30592	13.00073828	14
0	30593	13.00073828	15
0	30594	13.00073828	16
0	30613	13.00077332	16
0	30720	13.00086132	14
0	30721	13.00086132	15
0	30722	13.00086132	16
0	30723	13.00086132	17
0	30724	13.00086132	18
0	30742	13.00089636	18
0	30860	13.00098436	17
0	30861	13.00098436	18
0	30862	13.00098436	19
0	30863	13.00098436	20
0	30864	13.00098436	21
0	30880	13.00099124	22
0	30958	13.0011074	19
0	30959	13.0011074	20
0	30960	13.0011074	21
0	30961	13.0011074	22
0	30962	13.0011074	23
0	30966	13.00112972	24
0	30996	13.00123044	22
0	30997	13.00123044	23
0	30998	13.00123044	24
0	30999	13.00123044	25
0	31005	13.0012534	25
0	31010	13.001261	26
0	31038	13.00135348	24
0	31039	13.00135348	25
0	31068	13.00147652	23
0	31069	13.00147652	24
0	31095	13.00159956	21
0	31096	13.00159956	22
0	31106	13.00164516	22
0	31110	13.0016526	23
0	31960	14.00012308	0
0	31961	14.00012308	1
0	31962	14.00012308	2
0	31963	14.00012308	3
0	31964	14.00012308	4
0	32067	14.00024612	2
0	32068	14.00024612	3
0	32069	14.00024612	4
0	32070	14.00024612	5
0	32071	14.00024612	6
0	32090	14.00028116	6
0	32186	14.00036916	4
0	32187	14.00036916	5
0	32188	14.00036916	6
0	32189	14.00036916	7
0	32190	14.00036916	8
0	32209	14.0004042	8
0	32308	14.0004922	7
0	32309	14.0004922	8
0	32310	14.0004922	9
0	32311	14.0004922	10
0	32312	14.0004922	11
0	32331	14.00052724	11
0	32432	14.00061524	9
0	32433	14.00061524	10
0	32434	14.00061524	11
0	32435	14.00061524	12
0	32436	14.00061524	13
0	32460	14.00065028	13
0	32559	14.00073828	12
0	32560	14.00073828	13
0	32561	14.00073828	14
0	32562	14.00073828	15
0	32563	14.00073828	16
0	32582	14.00077332	16
0	32689	14.00086132	14
0	32690	14.00086132	15
0	32691	14.00086132	16
0	32692	14.00086132	17
0	32693	14.00086132	18
0	32711	14.00089636	18
0	32722	14.00091204	19
0	32808	14.00098436	18
0	32809	14.00098436	19
0	32810	14.00098436	20
0	32811	14.00098436	21
0	32816	14.00099124	22
0	32820	14.00099548	23
0	32893	14.00106012	22
0	32929	14.0011074	21
0	32930	14.0011074	22
0	33029	14.00123044	20
0	33030	14.00123044	21
0	33148	14.00135348	18
0	33149	14.00135348	19
0	33238	14.00147652	17
0	33239	14.00147652	18
0	33265	14.00159956	15
0	33266	14.00159956	16
0	33276	14.00163852	16
0	33280	14.00164004	17
0	34036	15.00012308	0
0	34037	15.00012308	1
0	34038	15.00012308	2
0	34039	15.00012308	3
0	34040	15.00012308	4
0	34143	15.00024612	2
0	34144	15.00024612	3
0	34145	15.00024612	4
0	34146	15.00024612	5
0	34147	15.00024612	6
0	34166	15.00028116	6
0	34262	15.00036916	4
0	34263	15.00036916	5
0	34264	15.00036916	6
0	34265	15.00036916	7
0	34266	15.00036916	8
0	34285	15.0004042	8
0	34384	15.0004922	7
0	34385	15.0004922	8
0	34386	15.0004922	9
0	34387	15.0004922	10
0	34388	15.0004922	11
0	34407	15.00052724	11
0	34508	15.00061524	9
0	34509	15.00061524	10
0	34510	15.00061524	11
0	34511	15.00061524	12
0	34512	15.00061524	13
0	34536	15.00065028	13
0	34635	15.00073828	12
0	34636	15.00073828	13
0	34637	15.00073828	14
0	34638	15.00073828	15
0	34639	15.00073828	16
0	34658	15.00077332	16
0	34765	15.00086132	14
0	34766	15.00086132	15
0	34767	15.00086132	16
0	34768	15.00086132	17
0	34769	15.00086132	18
0	34776	15.00087532	19
0	34780	15.00088508	20
0	34795	15.00089636	20
0	34876	15.0009754	19
0	34886	15.00098436	20
0	34887	15.00098436	21
0	34892	15.00099124	22
0	35046	15.0011074	19
0	35047	15.0011074	20
0	35094	15.00123044	18
0	35095	15.00123044	19
0	35124	15.00135292	16
0	35127	15.00135348	17
0	35153	15.00147652	15
0	35174	15.00155836	13
0	35874	16.00012308	0
0	35875	16.00012308	1
0	35876	16.00012308	2
0	35877	16.00012308	3
0	35878	16.00012308	4
0	35981	16.00024612	2
0	35982	16.00024612	3
0	35983	16.00024612	4
0	35984	16.00024612	5
0	35985	16.00024612	6
0	36004	16.00028116	6
0	36100	16.00036916	4
0	36101	16.00036916	5
0	36102	16.00036916	6
0	36103	16.00036916	7
0	36104	16.00036916	8
0	36123	16.0004042	8
0	36222	16.0004922	7
0	36223	16.0004922	8
0	36224	16.0004922	9
0	36225	16.0004922	10
0	36226	16.0004922	11
0	36245	16.00052724	11
0	36346	16.00061524	9
0	36347	16.00061524	10
0	36348	16.00061524	11
0	36349	16.00061524	12
0	36350	16.00061524	13
0	36374	16.00065028	13
0	36473	16.00073828	12
0	36474	16.00073828	13
0	36475	16.00073828	14
0	36476	16.00073828	15
0	36477	16.00073828	16
0	36496	16.00077332	16
0	36586	16.00084972	15
0	36604	16.00086132	15
0	36605	16.00086132	16
0	36606	16.00086132	17
0	36607	16.00086132	18
0	36625	16.00089636	18
0	36718	16.00098436	17
0	36719	16.00098436	18
0	36720	16.00098436	19
0	36721	16.00098436	20
0	36726	16.00099124	21
0	36837	16.0011074	18
0	36838	16.0011074	19
0	36839	16.0011074	20
0	36840	16.0011074	21
0	36845	16.00112076	22
0	36921	16.00118804	21
0	36947	16.00123044	21
0	36948	16.00123044	22
0	36969	16.00127164	22
0	37055	16.00135348	20
0	37156	16.00147652	18
0	37195	16.00153364	17
0	38057	17.00012308	0
0	38058	17.00012308	1
0	38059	17.00012308	2
0	38060	17.00012308	3
0	38061	17.00012308	4
0	38164	17.00024612	2
0	38165	17.00024612	3
0	38166	17.00024612	4
0	38167	17.00024612	5
0	38168	17.00024612	6
0	38187	17.00028116	6
0	38283	17.00036916	4
0	38284	17.00036916	5
0	38285	17.00036916	6
0	38286	17.00036916	7
0	38287	17.00036916	8
0	38306	17.0004042	8
0	38405	17.0004922	7
0	38406	17.0004922	8
0	38407	17.0004922	9
0	38408	17.0004922	10
0	38409	17.0004922	11
0	38428	17.00052724	11
0	38529	17.00061524	9
0	38530	17.00061524	10
0	38531	17.00061524	11
0	38532	17.00061524	12
0	38533	17.00061524	13
0	38557	17.00065028	13
0	38656	17.00073828	12
0	38657	17.00073828	13
0	38658	17.00073828	14
0	38659	17.00073828	15
0	38660	17.00073828	16
0	38679	17.00077332	16
0	38786	17.00086132	14
0	38787	17.00086132	15
0	38788	17.00086132	16
0	38789	17.00086132	17
0	38790	17.00086132	18
0	38808	17.00089636	18
0	38904	17.00098436	17
0	38905	17.00098436	18
0	38906	17.00098436	19
0	38907	17.00098436	20
0	38908	17.00098436	21
0	38913	17.00099124	22
0	38928	17.001025	22
0	39050	17.0011074	20
0	39051	17.0011074	21
0	39052	17.0011074	22
0	39053	17.0011074	23
0	39112	17.00114956	23
0	39134	17.00123044	22
0	39135	17.00123044	23
0	39136	17.00123044	24
0	39142	17.00125996	24
0	39166	17.0013194	23
0	39170	17.00134116	24
0	39971	18.00012308	0
0	39972	18.00012308	1
0	39973	18.00012308	2
0	39974	18.00012308	3
0	39975	18.00012308	4
0	40078	18.00024612	2
0	40079	18.00024612	3
0	40080	18.00024612	4
0	40081	18.00024612	5
0	40082	18.00024612	6
0	40101	18.00028116	6
0	40197	18.00036916	4
0	40198	18.00036916	5
0	40199	18.00036916	6
0	40200	18.00036916	7
0	40201	18.00036916	8
0	40220	18.0004042	8
0	40319	18.0004922	7
0	40320	18.0004922	8
0	40321	18.0004922	9
0	40322	18.0004922	10
0	40323	18.0004922	11
0	40342	18.00052724	11
0	40443	18.00061524	9
0	40444	18.00061524	10
0	40445	18.00061524	11
0	40446	18.00061524	12
0	40447	18.00061524	13
0	40471	18.00065028	13
0	40570	18.00073828	12
0	40571	18.00073828	13
0	40572	18.00073828	14
0	40573	18.00073828	15
0	40574	18.00073828	16
0	40593	18.00077332	16
0	40700	18.00086132	14
0	40701	18.00086132	15
0	40702	18.00086132	16
0	40703	18.00086132	17
0	40704	18.00086132	18
0	40711	18.00088764	19
0	40726	18.00089636	19
0	40819	18.00098436	18
0	40820	18.00098436	19
0	40821	18.00098436	20
0	40822	18.00098436	21
0	40827	18.00099124	22
0	40938	18.0011074	19
0	40939	18.0011074	20
0	40940	18.0011074	21
0	40941	18.0011074	22
0	40986	18.00117116	22
0	41047	18.00123044	21
0	41048	18.00123044	22
0	41049	18.00123044	23
0	41158	18.00135348	20
0	41159	18.00135348	21
0	41160	18.00135348	22
0	41165	18.00136484	23
0	41241	18.00143068	22
0	41269	18.00147652	22
0	41361	18.00157796	20
0	42220	19.00012308	0
0	42221	19.00012308	1
0	42222	19.00012308	2
0	42223	19.00012308	3
0	42224	19.00012308	4
0	42327	19.00024612	2
0	42328	19.00024612	3
0	42329	19.00024612	4
0	42330	19.00024612	5
0	42331	19.00024612	6
0	42350	19.00028116	6
0	42446	19.00036916	4
0	42447	19.00036916	5
0	42448	19.00036916	6
0	42449	19.00036916	7
0	42450	19.00036916	8
0	42469	19.0004042	8
0	42568	19.0004922	7
0	42569	19.0004922	8
0	42570	19.0004922	9
0	42571	19.0004922	10
0	42572	19.0004922	11
0	42591	19.00052724	11
0	42692	19.00061524	9
0	42693	19.00061524	10
0	42694	19.00061524	11
0	42695	19.00061524	12
0	42696	19.00061524	13
0	42720	19.00065028	13
0	42819	19.00073828	12
0	42820	19.00073828	13
0	42821	19.00073828	14
0	42822	19.00073828	15
0	42823	19.00073828	16
0	42842	19.00077332	16
0	42949	19.00086132	14
0	42950	19.00086132	15
0	42951	19.00086132	16
0	42952	19.00086132	17
0	42953	19.00086132	18
0	42971	19.00089636	18
0	42975	19.00090236	19
0	43030	19.00093364	19
0	43069	19.00098436	19
0	43070	19.00098436	20
0	43071	19.00098436	21
0	43076	19.00099124	22
0	43082	19.00101212	22
0	43176	19.0010822	21
0	43186	19.0011074	21
0	43282	19.00123044	19
0	43385	19.00135348	16
0	43486	19.00147652	14
0	43493	19.00150636	14
0	44337	20.00012308	0
0	44338	20.00012308	1
0	44339	20.00012308	2
0	44340	20.00012308	3
0	44341	20.00012308	4
0	44444	20.00024612	2
0	44445	20.00024612	3
0	44446	20.00024612	4
0	44447	20.00024612	5
0	44448	20.00024612	6
0	44467	20.00028116	6
0	44563	20.00036916	4
0	44564	20.00036916	5
0	44565	20.00036916	6
0	44566	20.00036916	7
0	44567	20.00036916	8
0	44586	20.0004042	8
0	44685	20.0004922	7
0	44686	20.0004922	8
0	44687	20.0004922	9
0	44688	20.0004922	10
0	44689	20.0004922	11
0	44708	20.00052724	11
0	44809	20.00061524	9
0	44810	20.00061524	10
0	44811	20.00061524	11
0	44812	20.00061524	12
0	44813	20.00061524	13
0	44837	20.00065028	13
0	44936	20.00073828	12
0	44937	20.00073828	13
0	44938	20.00073828	14
0	44939	20.00073828	15
0	44940	20.00073828	16
0	44959	20.00077332	16
0	45049	20.00084908	15
0	45067	20.00086132	15
0	45068	20.00086132	16
0	45069	20.00086132	17
0	45070	20.00086132	18
0	45088	20.00089636	18
0	45182	20.00098436	17
0	45183	20.00098436	18
0	45184	20.00098436	19
0	45185	20.00098436	20
0	45189	20.00099124	21
0	45297	20.0011074	18
0	45298	20.0011074	19
0	45299	20.0011074	20
0	45300	20.0011074	21
0	45330	20.00123044	19
0	45331	20.00123044	20
0	45332	20.00123044	21
0	45333	20.00123044	22
0	45337	20.00124076	23
0	45352	20.0012662	23
0	45356	20.00126836	24
0	45373	20.00135348	22
0	45399	20.00147652	20
0	45422	20.00159956	17
0	45434	20.0016646	16
0	46208	21.00012308	0
0	46209	21.00012308	1
0	46210	21.00012308	2
0	46211	21.00012308	3
0	46212	21.00012308	4
0	46315	21.00024612	2
0	46316	21.00024612	3
0	46317	21.00024612	4
0	46318	21.00024612	5
0	46319	21.00024612	6
0	46338	21.00028116	6
0	46434	21.00036916	4
0	46435	21.00036916	5
0	46436	21.00036916	6
0	46437	21.00036916	7
0	46438	21.00036916	8
0	46457	21.0004042	8
0	46556	21.0004922	7
0	46557	21.0004922	8
0	46558	21.0004922	9
0	46559	21.0004922	10
0	46560	21.0004922	11
0	46579	21.00052724	11
0	46680	21.00061524	9
0	46681	21.00061524	10
0	46682	21.00061524	11
0	46683	21.00061524	12
0	46684	21.00061524	13
0	46708	21.00065028	13
0	46807	21.00073828	12
0	46808	21.00073828	13
0	46809	21.00073828	14
0	46810	21.00073828	15
0	46811	21.00073828	16
0	46830	21.00077332	16
0	46919	21.00084404	15
0	46938	21.00086132	15
0	46939	21.00086132	16
0	46940	21.00086132	17
0	46941	21.00086132	18
0	46959	21.00089636	18
0	47052	21.00098436	17
0	47053	21.00098436	18
0	47054	21.00098436	19
0	47055	21.00098436	20
0	47060	21.00099124	21
0	47171	21.0011074	18
0	47172	21.0011074	19
0	47173	21.0011074	20
0	47174	21.0011074	21
0	47344	21.00123044	19
0	47345	21.00123044	20
0	47346	21.00123044	21
0	47347	21.00123044	22
0	47371	21.00128164	21
0	47392	21.00135348	20
0	47393	21.00135348	21
0	47394	21.00135348	22
0	47398	21.0013602	23
0	47427	21.00147652	21
0	47428	21.00147652	22
0	47440	21.00153212	21
0	47455	21.00159956	20
0	47461	21.00163236	20
0	48282	22.00012308	0
0	48283	22.00012308	1
0	48284	22.00012308	2
0	48285	22.00012308	3
0	48286	22.00012308	4
0	48389	22.00024612	2
0	48390	22.00024612	3
0	48391	22.00024612	4
0	48392	22.00024612	5
0	48393	22.00024612	6
0	48412	22.00028116	6
0	48508	22.00036916	4
0	48509	22.00036916	5
0	48510	22.00036916	6
0	48511	22.00036916	7
0	48512	22.00036916	8
0	48531	22.0004042	8
0	48630	22.0004922	7
0	48631	22.0004922	8
0	48632	22.0004922	9
0	48633	22.0004922	10
0	48634	22.0004922	11
0	48653	22.00052724	11
0	48754	22.00061524	9
0	48755	22.00061524	10
0	48756	22.00061524	11
0	48757	22.00061524	12
0	48758	22.00061524	13
0	48782	22.00065028	13
0	48881	22.00073828	12
0	48882	22.00073828	13
0	48883	22.00073828	14
0	48884	22.00073828	15
0	48885	22.00073828	16
0	48904	22.00077332	16
0	49011	22.00086132	14
0	49012	22.00086132	15
0	49013	22.00086132	16
0	49014	22.00086132	17
0	49015	22.00086132	18
0	49033	22.00089636	18
0	49129	22.00098436	17
0	49130	22.00098436	18
0	49131	22.00098436	19
0	49132	22.00098436	20
0	49133	22.00098436	21
0	49138	22.00099124	22
0	49235	22.00109732	20
0	49253	22.0011074	20
0	49254	22.0011074	21
0	49255	22.0011074	22
0	49256	22.0011074	23
0	49426	22.00123044	21
0	49427	22.00123044	22
0	49428	22.00123044	23
0	49429	22.00123044	24
0	49447	22.00126364	24
0	49466	22.00133204	23
0	49475	22.00135348	23
0	49476	22.00135348	24
0	49505	22.00147652	22
0	49506	22.00147652	23
0	49512	22.00150412	23
0	49533	22.00159956	21
0	49543	22.00164588	21
0	50365	23.00012308	0
0	50366	23.00012308	1
0	50367	23.00012308	2
0	50368	23.00012308	3
0	50369	23.00012308	4
0	50472	23.00024612	2
0	50473	23.00024612	3
0	50474	23.00024612	4
0	50475	23.00024612	5
0	50476	23.00024612	6
0	50495	23.00028116	6
0	50591	23.00036916	4
0	50592	23.00036916	5
0	50593	23.00036916	6
0	50594	23.00036916	7
0	50595	23.00036916	8
0	50614	23.0004042	8
0	50713	23.0004922	7
0	50714	23.0004922	8
0	50715	23.0004922	9
0	50716	23.0004922	10
0	50717	23.0004922	11
0	50736	23.00052724	11
0	50837	23.00061524	9
0	50838	23.00061524	10
0	50839	23.00061524	11
0	50840	23.00061524	12
0	50841	23.00061524	13
0	50865	23.00065028	13
0	50964	23.00073828	12
0	50965	23.00073828	13
0	50966	23.00073828	14
0	50967	23.00073828	15
0	50968	23.00073828	16
0	50987	23.00077332	16
0	51094	23.00086132	14
0	51095	23.00086132	15
0	51096	23.00086132	16
0	51097	23.00086132	17
0	51098	23.00086132	18
0	51120	23.00089636	18
0	51277	23.00098436	17
0	51278	23.00098436	18
0	51279	23.00098436	19
0	51280	23.00098436	20
0	51281	23.00098436	21
0	51291	23.00099124	22
0	51332	23.0011074	19
0	51333	23.0011074	20
0	51334	23.0011074	21
0	51335	23.0011074	22
0	51336	23.0011074	23
0	51357	23.00121548	21
0	51370	23.00123044	22
0	51371	23.00123044	23
0	51372	23.00123044	24
0	51373	23.00123044	25
0	51390	23.00128316	24
0	51405	23.00134876	23
0	51409	23.00135052	24
0	51413	23.00135348	25
0	51439	23.00147652	23
0	51460	23.001589	21
0	52256	24.00012308	0
0	52257	24.00012308	1
0	52258	24.00012308	2
0	52259	24.00012308	3
0	52260	24.00012308	4
0	52363	24.00024612	2
0	52364	24.00024612	3
0	52365	24.00024612	4
0	52366	24.00024612	5
0	52367	24.00024612	6
0	52386	24.00028116	6
0	52482	24.00036916	4
0	52483	24.00036916	5
0	52484	24.00036916	6
0	52485	24.00036916	7
0	52486	24.00036916	8
0	52505	24.0004042	8
0	52604	24.0004922	7
0	52605	24.0004922	8
0	52606	24.0004922	9
0	52607	24.0004922	10
0	52608	24.0004922	11
0	52627	24.00052724	11
0	52728	24.00061524	9
0	52729	24.00061524	10
0	52730	24.00061524	11
0	52731	24.00061524	12
0	52732	24.00061524	13
0	52756	24.00065028	13
0	52855	24.00073828	12
0	52856	24.00073828	13
0	52857	24.00073828	14
0	52858	24.00073828	15
0	52859	24.00073828	16
0	52878	24.00077332	16
0	52985	24.00086132	14
0	52986	24.00086132	15
0	52987	24.00086132	16
0	52988	24.00086132	17
0	52989	24.00086132	18
0	52996	24.00087244	19
0	53011	24.00089636	19
0	53105	24.00098436	18
0	53106	24.00098436	19
0	53107	24.00098436	20
0	53108	24.00098436	21
0	53112	24.00099124	22
0	53220	24.0011074	19
0	53221	24.0011074	20
0	53222	24.0011074	21
0	53223	24.0011074	22
0	53242	24.00119668	21
0	53254	24.00123044	21
0	53255	24.00123044	22
0	53256	24.00123044	23
0	53282	24.00134668	21
0	53288	24.00135068	21
0	53292	24.00135348	22
0	53302	24.00140468	22
0	54079	25.00012308	0
0	54080	25.00012308	1
0	54081	25.00012308	2
0	54082	25.00012308	3
0	54083	25.00012308	4
0	54186	25.00024612	2
0	54187	25.00024612	3
0	54188	25.00024612	4
0	54189	25.00024612	5
0	54190	25.00024612	6
0	54209	25.00028116	6
0	54305	25.00036916	4
0	54306	25.00036916	5
0	54307	25.00036916	6
0	54308	25.00036916	7
0	54309	25.00036916	8
0	54328	25.0004042	8
0	54427	25.0004922	7
0	54428	25.0004922	8
0	54429	25.0004922	9
0	54430	25.0004922	10
0	54431	25.0004922	11
0	54450	25.00052724	11
0	54551	25.00061524	9
0	54552	25.00061524	10
0	54553	25.00061524	11
0	54554	25.00061524	12
0	54555	25.00061524	13
0	54579	25.00065028	13
0	54678	25.00073828	12
0	54679	25.00073828	13
0	54680	25.00073828	14
0	54681	25.00073828	15
0	54682	25.00073828	16
0	54701	25.00077332	16
0	54793	25.00085948	14
0	54809	25.00086132	15
0	54810	25.00086132	16
0	54811	25.00086132	17
0	54812	25.00086132	18
0	54830	25.00089636	18
0	54863	25.000921	19
0	54924	25.00098436	18
0	54925	25.00098436	19
0	54926	25.00098436	20
0	54931	25.00099124	21
0	54977	25.00104612	20
0	55040	25.0011074	19
0	55041	25.0011074	20
0	55074	25.00116452	20
0	55141	25.00123044	19
0	55244	25.00135348	16
0	55345	25.00147652	14
0	55384	25.00153308	13
0	56220	26.00012308	0
0	56221	26.00012308	1
0	56222	26.00012308	2
0	56223	26.00012308	3
0	56224	26.00012308	4
0	56327	26.00024612	2
0	56328	26.00024612	3
0	56329	26.00024612	4
0	56330	26.00024612	5
0	56331	26.00024612	6
0	56350	26.00028116	6
0	56446	26.00036916	4
0	56447	26.00036916	5
0	56448	26.00036916	6
0	56449	26.00036916	7
0	56450	26.00036916	8
0	56469	26.0004042	8
0	56568	26.0004922	7
0	56569	26.0004922	8
0	56570	26.0004922	9
0	56571	26.0004922	10
0	56572	26.0004922	11
0	56591	26.00052724	11
0	56692	26.00061524	9
0	56693	26.00061524	10
0	56694	26.00061524	11
0	56695	26.00061524	12
0	56696	26.00061524	13
0	56720	26.00065028	13
0	56819	26.00073828	12
0	56820	26.00073828	13
0	56821	26.00073828	14
0	56822	26.00073828	15
0	56823	26.00073828	16
0	56842	26.00077332	16
0	56949	26.00086132	14
0	56950	26.00086132	15
0	56951	26.00086132	16
0	56952	26.00086132	17
0	56953	26.00086132	18
0	56971	26.00089636	18
0	57067	26.00098436	17
0	57068	26.00098436	18
0	57069	26.00098436	19
0	57070	26.00098436	20
0	57071	26.00098436	21
0	57076	26.00099124	22
0	57190	26.0011074	19
0	57191	26.0011074	20
0	57192	26.0011074	21
0	57193	26.0011074	22
0	57194	26.0011074	23
0	57302	26.00123044	21
0	57303	26.00123044	22
0	57304	26.00123044	23
0	57305	26.00123044	24
0	57306	26.00123044	25
0	57334	26.0012766	25
0	57407	26.0013326	24
0	57423	26.00135348	24
0	57424	26.00135348	25
0	57425	26.00135348	26
0	57523	26.00147268	24
0	57533	26.00147652	25
0	57534	26.00147652	26
0	57664	26.00159252	24
0	57684	26.00159956	24
0	57711	26.00162748	25
0	58587	27.00012308	0
0	58588	27.00012308	1
0	58589	27.00012308	2
0	58590	27.00012308	3
0	58591	27.00012308	4
0	58694	27.00024612	2
0	58695	27.00024612	3
0	58696	27.00024612	4
0	58697	27.00024612	5
0	58698	27.00024612	6
0	58717	27.00028116	6
0	58813	27.00036916	4
0	58814	27.00036916	5
0	58815	27.00036916	6
0	58816	27.00036916	7
0	58817	27.00036916	8
0	58836	27.0004042	8
0	58935	27.0004922	7
0	58936	27.0004922	8
0	58937	27.0004922	9
0	58938	27.0004922	10
0	58939	27.0004922	11
0	58958	27.00052724	11
0	59059	27.00061524	9
0	59060	27.00061524	10
0	59061	27.00061524	11
0	59062	27.00061524	12
0	59063	27.00061524	13
0	59087	27.00065028	13
0	59186	27.00073828	12
0	59187	27.00073828	13
0	59188	27.00073828	14
0	59189	27.00073828	15
0	59190	27.00073828	16
0	59209	27.00077332	16
0	59316	27.00086132	14
0	59317	27.00086132	15
0	59318	27.00086132	16
0	59319	27.00086132	17
0	59320	27.00086132	18
0	59341	27.00089636	18
0	59342	27.00089636	19
0	59435	27.00098436	18
0	59436	27.00098436	19
0	59437	27.00098436	20
0	59438	27.00098436	21
0	59443	27.00099124	22
0	59554	27.0011074	19
0	59555	27.0011074	20
0	59556	27.0011074	21
0	59557	27.0011074	22
0	59650	27.00122148	20
0	59663	27.00123044	21
0	59664	27.00123044	22
0	59665	27.00123044	23
0	59747	27.00130876	22
0	59775	27.00135348	21
0	59776	27.00135348	22
0	59881	27.00147652	20
0	59882	27.00147652	21
0	59941	27.00153884	20
0	59980	27.00159956	19
0	59984	27.00160988	20
0	60776	28.00012308	0
0	60777	28.00012308	1
0	60778	28.00012308	2
0	60779	28.00012308	3
0	60780	28.00012308	4
0	60883	28.00024612	2
0	60884	28.00024612	3
0	60885	28.00024612	4
0	60886	28.00024612	5
0	60887	28.00024612	6
0	60906	28.00028116	6
0	61002	28.00036916	4
0	61003	28.00036916	5
0	61004	28.00036916	6
0	61005	28.00036916	7
0	61006	28.00036916	8
0	61025	28.0004042	8
0	61124	28.0004922	7
0	61125	28.0004922	8
0	61126	28.0004922	9
0	61127	28.0004922	10
0	61128	28.0004922	11
0	61147	28.00052724	11
0	61248	28.00061524	9
0	61249	28.00061524	10
0	61250	28.00061524	11
0	61251	28.00061524	12
0	61252	28.00061524	13
0	61276	28.00065028	13
0	61375	28.00073828	12
0	61376	28.00073828	13
0	61377	28.00073828	14
0	61378	28.00073828	15
0	61379	28.00073828	16
0	61398	28.00077332	16
0	61505	28.00086132	14
0	61506	28.00086132	15
0	61507	28.00086132	16
0	61508	28.00086132	17
0	61509	28.00086132	18
0	61520	28.0008854	19
0	61535	28.00089636	19
0	61689	28.00098436	18
0	61690	28.00098436	19
0	61691	28.00098436	20
0	61692	28.00098436	21
0	61702	28.00099124	22
0	61740	28.0011074	19
0	61741	28.0011074	20
0	61742	28.0011074	21
0	61743	28.0011074	22
0	61747	28.00111876	23
0	61768	28.00121236	21
0	61775	28.00123044	22
0	61776	28.00123044	23
0	61793	28.00127948	22
0	61808	28.00135348	21
0	61827	28.00145188	20
0	62586	29.00012308	0
0	62587	29.00012308	1
0	62588	29.00012308	2
0	62589	29.00012308	3
0	62590	29.00012308	4
0	62693	29.00024612	2
0	62694	29.00024612	3
0	62695	29.00024612	4
0	62696	29.00024612	5
0	62697	29.00024612	6
0	62716	29.00028116	6
0	62812	29.00036916	4
0	62813	29.00036916	5
0	62814	29.00036916	6
0	62815	29.00036916	7
0	62816	29.00036916	8
0	62835	29.0004042	8
0	62934	29.0004922	7
0	62935	29.0004922	8
0	62936	29.0004922	9
0	62937	29.0004922	10
0	62938	29.0004922	11
0	62957	29.00052724	11
0	63058	29.00061524	9
0	63059	29.00061524	10
0	63060	29.00061524	11
0	63061	29.00061524	12
0	63062	29.00061524	13
0	63086	29.00065028	13
0	63185	29.00073828	12
0	63186	29.00073828	13
0	63187	29.00073828	14
0	63188	29.00073828	15
0	63189	29.00073828	16
0	63208	29.00077332	16
0	63315	29.00086132	14
0	63316	29.00086132	15
0	63317	29.00086132	16
0	63318	29.00086132	17
0	63319	29.00086132	18
0	63326	29.00088468	19
0	63341	29.00089636	19
0	63434	29.00098436	18
0	63435	29.00098436	19
0	63436	29.00098436	20
0	63437	29.00098436	21
0	63442	29.00099124	22
0	63538	29.00108156	20
0	63554	29.0011074	20
0	63555	29.0011074	21
0	63556	29.0011074	22
0	63658	29.00123044	20
0	63659	29.00123044	21
0	63660	29.00123044	22
0	63685	29.00127244	22
0	63745	29.00130268	22
0	63836	29.00135348	21
0	63847	29.00138172	22
0	64642	30.00002664	0
0	64777	30.00012308	0
0	64778	30.00012308	1
0	64779	30.00012308	2
0	64780	30.00012308	3
0	64781	30.00012308	4
0	64807	30.0001372	5
0	64931	30.00024612	3
0	64932	30.00024612	4
0	64933	30.00024612	5
0	64934	30.00024612	6
0	64935	30.00024612	7
0	64954	30.00028116	7
0	65049	30.00036916	5
0	65050	30.00036916	6
0	65051	30.00036916	7
0	65052	30.00036916	8
0	65053	30.00036916	9
0	65072	30.0004042	9
0	65171	30.0004922	8
0	65172	30.0004922	9
0	65173	30.0004922	10
0	65174	30.0004922	11
0	65175	30.0004922	12
0	65194	30.00052724	12
0	65295	30.00061524	10
0	65296	30.00061524	11
0	65297	30.00061524	12
0	65298	30.00061524	13
0	65299	30.00061524	14
0	65318	30.00065028	14
0	65422	30.00073828	13
0	65423	30.00073828	14
0	65424	30.00073828	15
0	65425	30.00073828	16
0	65426	30.00073828	17
0	65445	30.00077332	17
0	65547	30.00086132	15
0	65548	30.00086132	16
0	65549	30.00086132	17
0	65550	30.00086132	18
0	65551	30.00086132	19
0	65558	30.00087276	20
0	65579	30.00089636	20
0	65582	30.00089692	21
0	65706	30.00098436	20
0	65707	30.00098436	21
0	65708	30.00098436	22
0	65727	30.00099108	23
0	65730	30.00099124	24
0	65785	30.0011074	21
0	65786	30.0011074	22
0	65810	30.00123044	20
0	65811	30.00123044	21
0	65815	30.00124228	22
0	65827	30.00128452	21
0	66579	31.00012308	0
0	66580	31.00012308	1
0	66581	31.00012308	2
0	66582	31.00012308	3
0	66583	31.00012308	4
0	66686	31.00024612	2
0	66687	31.00024612	3
0	66688	31.00024612	4
0	66689	31.00024612	5
0	66690	31.00024612	6
0	66709	31.00028116	6
0	66805	31.00036916	4
0	66806	31.00036916	5
0	66807	31.00036916	6
0	66808	31.00036916	7
0	66809	31.00036916	8
0	66828	31.0004042	8
0	66927	31.0004922	7
0	66928	31.0004922	8
0	66929	31.0004922	9
0	66930	31.0004922	10
0	66931	31.0004922	11
0	66950	31.00052724	11
0	67051	31.00061524	9
0	67052	31.00061524	10
0	67053	31.00061524	11
0	67054	31.00061524	12
0	67055	31.00061524	13
0	67079	31.00065028	13
0	67178	31.00073828	12
0	67179	31.00073828	13
0	67180	31.00073828	14
0	67181	31.00073828	15
0	67182	31.00073828	16
0	67201	31.00077332	16
0	67308	31.00086132	14
0	67309	31.00086132	15
0	67310	31.00086132	16
0	67311	31.00086132	17
0	67312	31.00086132	18
0	67330	31.00089636	18
0	67342	31.00091308	19
0	67427	31.00098436	18
0	67428	31.00098436	19
0	67429	31.00098436	20
0	67430	31.00098436	21
0	67435	31.00099124	22
0	67441	31.001011	22
0	67547	31.0011074	20
0	67548	31.0011074	21
0	67549	31.0011074	22
0	67651	31.00123044	20
0	67652	31.00123044	21
0	67653	31.00123044	22
0	67724	31.00130052	21
0	67763	31.00135348	20
0	67764	31.00135348	21
0	67868	31.00147652	19
0	67869	31.00147652	20
0	67938	31.00155228	19
0	67965	31.00158164	19
0	68882	32.00012308	0
0	68883	32.00012308	1
0	68884	32.00012308	2
0	68885	32.00012308	3
0	68886	32.00012308	4
0	68989	32.00024612	2
0	68990	32.00024612	3
0	68991	32.00024612	4
0	68992	32.00024612	5
0	68993	32.00024612	6
0	69012	32.00028116	6
0	69108	32.00036916	4
0	69109	32.00036916	5
0	69110	32.00036916	6
0	69111	32.00036916	7
0	69112	32.00036916	8
0	69131	32.0004042	8
0	69230	32.0004922	7
0	69231	32.0004922	8
0	69232	32.0004922	9
0	69233	32.0004922	10
0	69234	32.0004922	11
0	69253	32.00052724	11
0	69354	32.00061524	9
0	69355	32.00061524	10
0	69356	32.00061524	11
0	69357	32.00061524	12
0	69358	32.00061524	13
0	69382	32.00065028	13
0	69481	32.00073828	12
0	69482	32.00073828	13
0	69483	32.00073828	14
0	69484	32.00073828	15
0	69485	32.00073828	16
0	69504	32.00077332	16
0	69611	32.00086132	14
0	69612	32.00086132	15
0	69613	32.00086132	16
0	69614	32.00086132	17
0	69615	32.00086132	18
0	69633	32.00089636	18
0	69645	32.0009134	19
0	69718	32.0009822	18
0	69731	32.00098436	19
0	69732	32.00098436	20
0	69733	32.00098436	21
0	69739	32.00099124	22
0	69742	32.0009914	23
0	69847	32.0011074	20
0	69848	32.0011074	21
0	69934	32.0011878	20
0	70013	32.00123044	20
0	70048	32.00135348	17
0	70074	32.00147652	15
0	70086	32.00153244	14
0	70809	33.00012308	0
0	70810	33.00012308	1
0	70811	33.00012308	2
0	70812	33.00012308	3
0	70813	33.00012308	4
0	70916	33.00024612	2
0	70917	33.00024612	3
0	70918	33.00024612	4
0	70919	33.00024612	5
0	70920	33.00024612	6
0	70939	33.00028116	6
0	71035	33.00036916	4
0	71036	33.00036916	5
0	71037	33.00036916	6
0	71038	33.00036916	7
0	71039	33.00036916	8
0	71058	33.0004042	8
0	71157	33.0004922	7
0	71158	33.0004922	8
0	71159	33.0004922	9
0	71160	33.0004922	10
0	71161	33.0004922	11
0	71180	33.00052724	11
0	71281	33.00061524	9
0	71282	33.00061524	10
0	71283	33.00061524	11
0	71284	33.00061524	12
0	71285	33.00061524	13
0	71309	33.00065028	13
0	71408	33.00073828	12
0	71409	33.00073828	13
0	71410	33.00073828	14
0	71411	33.00073828	15
0	71412	33.00073828	16
0	71431	33.00077332	16
0	71538	33.00086132	14
0	71539	33.00086132	15
0	71540	33.00086132	16
0	71541	33.00086132	17
0	71542	33.00086132	18
0	71560	33.00089636	18
0	71656	33.00098436	17
0	71657	33.00098436	18
0	71658	33.00098436	19
0	71659	33.00098436	20
0	71660	33.00098436	21
0	71665	33.00099124	22
0	71671	33.00100564	22
0	71780	33.0011074	20
0	71781	33.0011074	21
0	71782	33.0011074	22
0	71783	33.0011074	23
0	71888	33.00123044	21
0	71889	33.00123044	22
0	71890	33.00123044	23
0	71891	33.00123044	24
0	71992	33.0013234	22
0	72026	33.00135348	22
0	72027	33.00135348	23
0	72028	33.00135348	24
0	72110	33.00147652	22
0	72111	33.00147652	23
0	72112	33.00147652	24
0	72118	33.00149636	24
0	72135	33.00155668	24
0	72143	33.00159956	23
0	72153	33.00163932	23
0	72995	34.00012308	0
0	72996	34.00012308	1
0	72997	34.00012308	2
0	72998	34.00012308	3
0	72999	34.00012308	4
0	73102	34.00024612	2
0	73103	34.00024612	3
0	73104	34.00024612	4
0	73105	34.00024612	5
0	73106	34.00024612	6
0	73125	34.00028116	6
0	73221	34.00036916	4
0	73222	34.00036916	5
0	73223	34.00036916	6
0	73224	34.00036916	7
0	73225	34.00036916	8
0	73244	34.0004042	8
0	73343	34.0004922	7
0	73344	34.0004922	8
0	73345	34.0004922	9
0	73346	34.0004922	10
0	73347	34.0004922	11
0	73366	34.00052724	11
0	73467	34.00061524	9
0	73468	34.00061524	10
0	73469	34.00061524	11
0	73470	34.00061524	12
0	73471	34.00061524	13
0	73495	34.00065028	13
0	73594	34.00073828	12
0	73595	34.00073828	13
0	73596	34.00073828	14
0	73597	34.00073828	15
0	73598	34.00073828	16
0	73617	34.00077332	16
0	73724	34.00086132	14
0	73725	34.00086132	15
0	73726	34.00086132	16
0	73727	34.00086132	17
0	73728	34.00086132	18
0	73746	34.00089636	18
0	73842	34.00098436	17
0	73843	34.00098436	18
0	73844	34.00098436	19
0	73845	34.00098436	20
0	73846	34.00098436	21
0	73851	34.00099124	22
0	73873	34.00103068	22
0	73926	34.00105524	22
0	73955	34.00109268	22
0	73968	34.0011074	22
0	73969	34.0011074	23
0	73992	34.00115276	23
0	74069	34.00123044	22
0	74184	34.00135348	19
0	74270	34.00147652	17
0	74282	34.00153876	16
0	75017	35.00012308	0
0	75018	35.00012308	1
0	75019	35.00012308	2
0	75020	35.00012308	3
0	75021	35.00012308	4
0	75124	35.00024612	2
0	75125	35.00024612	3
0	75126	35.00024612	4
0	75127	35.00024612	5
0	75128	35.00024612	6
0	75147	35.00028116	6
0	75243	35.00036916	4
0	75244	35.00036916	5
0	75245	35.00036916	6
0	75246	35.00036916	7
0	75247	35.00036916	8
0	75266	35.0004042	8
0	75365	35.0004922	7
0	75366	35.0004922	8
0	75367	35.0004922	9
0	75368	35.0004922	10
0	75369	35.0004922	11
0	75388	35.00052724	11
0	75489	35.00061524	9
0	75490	35.00061524	10
0	75491	35.00061524	11
0	75492	35.00061524	12
0	75493	35.00061524	13
0	75517	35.00065028	13
0	75616	35.00073828	12
0	75617	35.00073828	13
0	75618	35.00073828	14
0	75619	35.00073828	15
0	75620	35.00073828	16
0	75639	35.00077332	16
0	75746	35.00086132	14
0	75747	35.00086132	15
0	75748	35.00086132	16
0	75749	35.00086132	17
0	75750	35.00086132	18
0	75768	35.00089636	18
0	75801	35.00092204	19
0	75865	35.00098436	18
0	75866	35.00098436	19
0	75867	35.00098436	20
0	75868	35.00098436	21
0	75873	35.00099124	22
0	75944	35.00105676	21
0	75985	35.0011074	20
0	75986	35.0011074	21
0	75987	35.0011074	22
0	76089	35.00123044	20
0	76090	35.00123044	21
0	76091	35.00123044	22
0	76147	35.001291	21
0	76266	35.00135348	20
0	76267	35.00135348	21
0	76295	35.00145804	19
0	76304	35.00147652	20
0	76316	35.0015286	19
0	77090	36.00012308	0
0	77091	36.00012308	1
0	77092	36.00012308	2
0	77093	36.00012308	3
0	77094	36.00012308	4
0	77197	36.00024612	2
0	77198	36.00024612	3
0	77199	36.00024612	4
0	77200	36.00024612	5
0	77201	36.00024612	6
0	77220	36.00028116	6
0	77316	36.00036916	4
0	77317	36.00036916	5
0	77318	36.00036916	6
0	77319	36.00036916	7
0	77320	36.00036916	8
0	77339	36.0004042	8
0	77438	36.0004922	7
0	77439	36.0004922	8
0	77440	36.0004922	9
0	77441	36.0004922	10
0	77442	36.0004922	11
0	77461	36.00052724	11
0	77562	36.00061524	9
0	77563	36.00061524	10
0	77564	36.00061524	11
0	77565	36.00061524	12
0	77566	36.00061524	13
0	77590	36.00065028	13
0	77689	36.00073828	12
0	77690	36.00073828	13
0	77691	36.00073828	14
0	77692	36.00073828	15
0	77693	36.00073828	16
0	77712	36.00077332	16
0	77819	36.00086132	14
0	77820	36.00086132	15
0	77821	36.00086132	16
0	77822	36.00086132	17
0	77823	36.00086132	18
0	77841	36.00089636	18
0	77852	36.00090588	19
0	77938	36.00098436	18
0	77939	36.00098436	19
0	77940	36.00098436	20
0	77941	36.00098436	21
0	77946	36.00099124	22
0	78017	36.00105564	21
0	78058	36.0011074	20
0	78059	36.0011074	21
0	78060	36.0011074	22
0	78162	36.00123044	20
0	78163	36.00123044	21
0	78164	36.00123044	22
0	78171	36.00125396	22
0	78274	36.00135348	20
0	78275	36.00135348	21
0	78298	36.0014034	21
0	78367	36.00144164	21
0	79217	37.00012308	0
0	79218	37.00012308	1
0	79219	37.00012308	2
0	79220	37.00012308	3
0	79221	37.00012308	4
0	79324	37.00024612	2
0	79325	37.00024612	3
0	79326	37.00024612	4
0	79327	37.00024612	5
0	79328	37.00024612	6
0	79347	37.00028116	6
0	79443	37.00036916	4
0	79444	37.00036916	5
0	79445	37.00036916	6
0	79446	37.00036916	7
0	79447	37.00036916	8
0	79466	37.0004042	8
0	79565	37.0004922	7
0	79566	37.0004922	8
0	79567	37.0004922	9
0	79568	37.0004922	10
0	79569	37.0004922	11
0	79588	37.00052724	11
0	79689	37.00061524	9
0	79690	37.00061524	10
0	79691	37.00061524	11
0	79692	37.00061524	12
0	79693	37.00061524	13
0	79717	37.00065028	13
0	79816	37.00073828	12
0	79817	37.00073828	13
0	79818	37.00073828	14
0	79819	37.00073828	15
0	79820	37.00073828	16
0	79839	37.00077332	16
0	79946	37.00086132	14
0	79947	37.00086132	15
0	79948	37.00086132	16
0	79949	37.00086132	17
0	79950	37.00086132	18
0	79968	37.00089636	18
0	79972	37.00090212	19
0	80065	37.00098436	18
0	80066	37.00098436	19
0	80067	37.00098436	20
0	80068	37.00098436	21
0	80073	37.00099124	22
0	80079	37.0009998	22
0	80173	37.00108436	21
0	80186	37.0011074	21
0	80187	37.0011074	22
0	80287	37.00123044	20
0	80288	37.00123044	21
0	80390	37.00135348	18
0	80391	37.00135348	19
0	80420	37.00147652	17
0	80421	37.00147652	18
0	80433	37.00152644	17
0	80446	37.00156252	17
0	81182	38.00012308	0
0	81183	38.00012308	1
0	81184	38.00012308	2
0	81185	38.00012308	3
0	81186	38.00012308	4
0	81289	38.00024612	2
0	81290	38.00024612	3
0	81291	38.00024612	4
0	81292	38.00024612	5
0	81293	38.00024612	6
0	81312	38.00028116	6
0	81408	38.00036916	4
0	81409	38.00036916	5
0	81410	38.00036916	6
0	81411	38.00036916	7
0	81412	38.00036916	8
0	81431	38.0004042	8
0	81530	38.0004922	7
0	81531	38.0004922	8
0	81532	38.0004922	9
0	81533	38.0004922	10
0	81534	38.0004922	11
0	81553	38.00052724	11
0	81654	38.00061524	9
0	81655	38.00061524	10
0	81656	38.00061524	11
0	81657	38.00061524	12
0	81658	38.00061524	13
0	81682	38.00065028	13
0	81781	38.00073828	12
0	81782	38.00073828	13
0	81783	38.00073828	14
0	81784	38.00073828	15
0	81785	38.00073828	16
0	81804	38.00077332	16
0	81888	38.0008382	15
0	81912	38.00086132	15
0	81913	38.00086132	16
0	81914	38.00086132	17
0	81915	38.00086132	18
0	81933	38.00089636	18
0	82026	38.00098436	17
0	82027	38.00098436	18
0	82028	38.00098436	19
0	82029	38.00098436	20
0	82034	38.00099124	21
0	82058	38.0010334	20
0	82109	38.00105612	21
0	82147	38.0011074	20
0	82148	38.0011074	21
0	82153	38.00112836	22
0	82191	38.00116612	22
0	83123	39.00012308	0
0	83124	39.00012308	1
0	83125	39.00012308	2
0	83126	39.00012308	3
0	83127	39.00012308	4
0	83230	39.00024612	2
0	83231	39.00024612	3
0	83232	39.00024612	4
0	83233	39.00024612	5
0	83234	39.00024612	6
0	83253	39.00028116	6
0	83349	39.00036916	4
0	83350	39.00036916	5
0	83351	39.00036916	6
0	83352	39.00036916	7
0	83353	39.00036916	8
0	83372	39.0004042	8
0	83471	39.0004922	7
0	83472	39.0004922	8
0	83473	39.0004922	9
0	83474	39.0004922	10
0	83475	39.0004922	11
0	83494	39.00052724	11
0	83595	39.00061524	9
0	83596	39.00061524	10
0	83597	39.00061524	11
0	83598	39.00061524	12
0	83599	39.00061524	13
0	83623	39.00065028	13
0	83722	39.00073828	12
0	83723	39.00073828	13
0	83724	39.00073828	14
0	83725	39.00073828	15
0	83726	39.00073828	16
0	83745	39.00077332	16
0	83852	39.00086132	14
0	83853	39.00086132	15
0	83854	39.00086132	16
0	83855	39.00086132	17
0	83856	39.00086132	18
0	83874	39.00089636	18
0	83970	39.00098436	17
0	83971	39.00098436	18
0	83972	39.00098436	19
0	83973	39.00098436	20
0	83974	39.00098436	21
0	83979	39.00099124	22
0	83985	39.00099948	22
0	84079	39.00107892	21
0	84095	39.0011074	21
0	84096	39.0011074	22
0	84097	39.0011074	23
0	84120	39.00115892	23
0	84200	39.00123044	22
0	84201	39.00123044	23
0	84307	39.00135348	20
0	84308	39.00135348	21
0	84392	39.00144004	20
0	84413	39.00147652	20
0	84420	39.0015018	20
0	85344	40.00012308	0
0	85345	40.00012308	1
0	85346	40.00012308	2
0	85347	40.00012308	3
0	85348	40.00012308	4
0	85417	40.00020564	3
0	85449	40.00024612	3
0	85450	40.00024612	4
0	85451	40.00024612	5
0	85452	40.00024612	6
0	85453	40.00024612	7
0	85558	40.00036916	4
0	85559	40.00036916	5
0	85560	40.00036916	6
0	85561	40.00036916	7
0	85562	40.00036916	8
0	85678	40.0004922	6
0	85679	40.0004922	7
0	85680	40.0004922	8
0	85681	40.0004922	9
0	85682	40.0004922	10
0	85792	40.00061524	7
0	85793	40.00061524	8
0	85794	40.00061524	9
0	85795	40.00061524	10
0	85796	40.00061524	11
0	85904	40.00073828	9
0	85905	40.00073828	10
0	85906	40.00073828	11
0	85907	40.00073828	12
0	85908	40.00073828	13
0	86018	40.00086132	10
0	86019	40.00086132	11
0	86020	40.00086132	12
0	86021	40.00086132	13
0	86022	40.00086132	14
0	86130	40.00098436	12
0	86131	40.00098436	13
0	86132	40.00098436	14
0	86133	40.00098436	15
0	86134	40.00098436	16
0	86244	40.0011074	13
0	86245	40.0011074	14
0	86246	40.0011074	15
0	86247	40.0011074	16
0	86248	40.0011074	17
0	86304	40.001175	16
0	86313	40.00117684	17
0	86359	40.00123044	17
0	86360	40.00123044	18
0	86361	40.00123044	19
0	86461	40.00135348	16
0	86462	40.00135348	17
0	86463	40.00135348	18
0	86475	40.001419	17
0	86486	40.00145252	18
0	86492	40.00147652	18
0	86513	40.00158332	16
0	87129	40.10020564	0
0	87155	40.20020564	0
0	87181	40.30020564	0
0	87207	40.40020564	0
0	87233	40.50020564	0
0	87259	40.60020564	0
0	87285	40.70020564	0
0	87311	40.80020564	0
0	87337	40.90020564	0
0	87526	41.00012308	0
0	87527	41.00012308	1
0	87528	41.00012308	2
0	87529	41.00012308	3
0	87530	41.00012308	4
0	87599	41.00020564	3
0	87631	41.00024612	3
0	87632	41.00024612	4
0	87633	41.00024612	5
0	87634	41.00024612	6
0	87635	41.00024612	7
0	87740	41.00036916	4
0	87741	41.00036916	5
0	87742	41.00036916	6
0	87743	41.00036916	7
0	87744	41.00036916	8
0	87860	41.0004922	6
0	87861	41.0004922	7
0	87862	41.0004922	8
0	87863	41.0004922	9
0	87864	41.0004922	10
0	87974	41.00061524	7
0	87975	41.00061524	8
0	87976	41.00061524	9
0	87977	41.00061524	10
0	87978	41.00061524	11
0	88086	41.00073828	9
0	88087	41.00073828	10
0	88088	41.00073828	11
0	88089	41.00073828	12
0	88090	41.00073828	13
0	88200	41.00086132	10
0	88201	41.00086132	11
0	88202	41.00086132	12
0	88203	41.00086132	13
0	88204	41.00086132	14
0	88209	41.00088628	15
0	88300	41.00097148	13
0	88305	41.00097628	14
0	88315	41.00098436	15
0	88316	41.00098436	16
0	88417	41.0011074	13
0	88418	41.0011074	14
0	88517	41.00123044	12
0	88518	41.00123044	13
0	88619	41.00135348	10
0	88620	41.00135348	11
0	88665	41.00141604	11
0	88720	41.00147652	10
0	88759	41.00153212	9
0	89400	41.10020564	0
0	89426	41.20020564	0
0	89452	41.30020564	0
0	89478	41.40020564	0
0	89504	41.50020564	0
0	89530	41.60020564	0
0	89556	41.70020564	0
0	89582	41.80020564	0
0	89608	41.90020564	0
0	89801	42.00012308	0
0	89802	42.00012308	1
0	89803	42.00012308	2
0	89804	42.00012308	3
0	89805	42.00012308	4
0	89874	42.00020564	3
0	89906	42.00024612	3
0	89907	42.00024612	4
0	89908	42.00024612	5
0	89909	42.00024612	6
0	89910	42.00024612	7
0	90015	42.00036916	4
0	90016	42.00036916	5
0	90017	42.00036916	6
0	90018	42.00036916	7
0	90019	42.00036916	8
0	90135	42.0004922	6
0	90136	42.0004922	7
0	90137	42.0004922	8
0	90138	42.0004922	9
0	90139	42.0004922	10
0	90249	42.00061524	7
0	90250	42.00061524	8
0	90251	42.00061524	9
0	90252	42.00061524	10
0	90253	42.00061524	11
0	90361	42.00073828	9
0	90362	42.00073828	10
0	90363	42.00073828	11
0	90364	42.00073828	12
0	90365	42.00073828	13
0	90475	42.00086132	10
0	90476	42.00086132	11
0	90477	42.00086132	12
0	90478	42.00086132	13
0	90479	42.00086132	14
0	90587	42.00098436	12
0	90588	42.00098436	13
0	90589	42.00098436	14
0	90590	42.00098436	15
0	90591	42.00098436	16
0	90598	42.00100268	16
0	90611	42.00102676	17
0	90703	42.0011074	15
0	90704	42.0011074	16
0	90705	42.0011074	17
0	90710	42.0011206	18
0	90808	42.00123044	16
0	90809	42.00123044	17
0	90904	42.0013514	14
0	90911	42.00135348	15
0	91008	42.00147652	13
0	91099	42.00156396	11
0	91651	42.10020564	0
0	91677	42.20020564	0
0	91703	42.30020564	0
0	91729	42.40020564	0
0	91755	42.50020564	0
0	91781	42.60020564	0
0	91807	42.70020564	0
0	91833	42.80020564	0
0	91859	42.90020564	0
0	92042	43.00012308	0
0	92043	43.00012308	1
0	92044	43.00012308	2
0	92045	43.00012308	3
0	92046	43.00012308	4
0	92115	43.00020564	3
0	92147	43.00024612	3
0	92148	43.00024612	4
0	92149	43.00024612	5
0	92150	43.00024612	6
0	92151	43.00024612	7
0	92256	43.00036916	4
0	92257	43.00036916	5
0	92258	43.00036916	6
0	92259	43.00036916	7
0	92260	43.00036916	8
0	92376	43.0004922	6
0	92377	43.0004922	7
0	92378	43.0004922	8
0	92379	43.0004922	9
0	92380	43.0004922	10
0	92490	43.00061524	7
0	92491	43.00061524	8
0	92492	43.00061524	9
0	92493	43.00061524	10
0	92494	43.00061524	11
0	92602	43.00073828	9
0	92603	43.00073828	10
0	92604	43.00073828	11
0	92605	43.00073828	12
0	92606	43.00073828	13
0	92716	43.00086132	10
0	92717	43.00086132	11
0	92718	43.00086132	12
0	92719	43.00086132	13
0	92720	43.00086132	14
0	92727	43.00089308	14
0	92817	43.00097436	13
0	92830	43.00098436	14
0	92831	43.00098436	15
0	92832	43.00098436	16
0	92879	43.0010462	15
0	92903	43.00105708	16
0	92938	43.0011074	15
0	93034	43.00123044	13
0	93132	43.00135348	10
0	93262	43.00147652	8
0	93309	43.00151636	8
0	93807	43.10020564	0
0	93833	43.20020564	0
0	93859	43.30020564	0
0	93885	43.40020564	0
0	93911	43.50020564	0
0	93937	43.60020564	0
0	93963	43.70020564	0
0	93989	43.80020564	0
0	94015	43.90020564	0
0	94213	44.00012308	0
0	94214	44.00012308	1
0	94215	44.00012308	2
0	94216	44.00012308	3
0	94217	44.00012308	4
0	94320	44.00024612	2
0	94321	44.00024612	3
0	94322	44.00024612	4
0	94323	44.00024612	5
0	94324	44.00024612	6
0	94341	44.00028116	6
0	94439	44.00036916	4
0	94440	44.00036916	5
0	94441	44.00036916	6
0	94442	44.00036916	7
0	94443	44.00036916	8
0	94461	44.0004042	8
0	94561	44.0004922	7
0	94562	44.0004922	8
0	94563	44.0004922	9
0	94564	44.0004922	10
0	94565	44.0004922	11
0	94583	44.00052724	11
0	94685	44.00061524	9
0	94686	44.00061524	10
0	94687	44.00061524	11
0	94688	44.00061524	12
0	94689	44.00061524	13
0	94712	44.00065028	13
0	94812	44.00073828	12
0	94813	44.00073828	13
0	94814	44.00073828	14
0	94815	44.00073828	15
0	94816	44.00073828	16
0	94834	44.00077332	16
0	94942	44.00086132	14
0	94943	44.00086132	15
0	94944	44.00086132	16
0	94945	44.00086132	17
0	94946	44.00086132	18
0	94970	44.00089636	18
0	95056	44.00098436	17
0	95057	44.00098436	18
0	95058	44.00098436	19
0	95059	44.00098436	20
0	95060	44.00098436	21
0	95064	44.00099124	22
0	95090	44.00109876	20
0	95105	44.0011074	20
0	95106	44.0011074	21
0	95107	44.0011074	22
0	95108	44.0011074	23
0	95129	44.001209	21
0	95139	44.00123044	22
0	95140	44.00123044	23
0	95141	44.00123044	24
0	95167	44.0013458	22
0	95176	44.00135348	22
0	95177	44.00135348	23
0	95183	44.0013842	23
0	95191	44.00140308	24
0	95989	45.00012308	0
0	95990	45.00012308	1
0	95991	45.00012308	2
0	95992	45.00012308	3
0	95993	45.00012308	4
0	96096	45.00024612	2
0	96097	45.00024612	3
0	96098	45.00024612	4
0	96099	45.00024612	5
0	96100	45.00024612	6
0	96117	45.00028116	6
0	96215	45.00036916	4
0	96216	45.00036916	5
0	96217	45.00036916	6
0	96218	45.00036916	7
0	96219	45.00036916	8
0	96237	45.0004042	8
0	96337	45.0004922	7
0	96338	45.0004922	8
0	96339	45.0004922	9
0	96340	45.0004922	10
0	96341	45.0004922	11
0	96359	45.00052724	11
0	96461	45.00061524	9
0	96462	45.00061524	10
0	96463	45.00061524	11
0	96464	45.00061524	12
0	96465	45.00061524	13
0	96488	45.00065028	13
0	96588	45.00073828	12
0	96589	45.00073828	13
0	96590	45.00073828	14
0	96591	45.00073828	15
0	96592	45.00073828	16
0	96610	45.00077332	16
0	96717	45.00086132	14
0	96718	45.00086132	15
0	96719	45.00086132	16
0	96720	45.00086132	17
0	96721	45.00086132	18
0	96726	45.00086804	19
0	96732	45.00087012	20
0	96751	45.00089636	20
0	96902	45.00098436	19
0	96903	45.00098436	20
0	96904	45.00098436	21
0	96914	45.00099124	22
0	96927	45.0010398	21
0	96950	45.0011074	20
0	96951	45.0011074	21
0	96961	45.00116268	21
0	96976	45.00123044	20
0	97004	45.00135348	17
0	97030	45.00147652	15
0	97053	45.00159956	12
0	97057	45.00161772	13
0	97775	46.00012308	0
0	97776	46.00012308	1
0	97777	46.00012308	2
0	97778	46.00012308	3
0	97779	46.00012308	4
0	97882	46.00024612	2
0	97883	46.00024612	3
0	97884	46.00024612	4
0	97885	46.00024612	5
0	97886	46.00024612	6
0	97903	46.00028116	6
0	98001	46.00036916	4
0	98002	46.00036916	5
0	98003	46.00036916	6
0	98004	46.00036916	7
0	98005	46.00036916	8
0	98023	46.0004042	8
0	98123	46.0004922	7
0	98124	46.0004922	8
0	98125	46.0004922	9
0	98126	46.0004922	10
0	98127	46.0004922	11
0	98145	46.00052724	11
0	98247	46.00061524	9
0	98248	46.00061524	10
0	98249	46.00061524	11
0	98250	46.00061524	12
0	98251	46.00061524	13
0	98274	46.00065028	13
0	98374	46.00073828	12
0	98375	46.00073828	13
0	98376	46.00073828	14
0	98377	46.00073828	15
0	98378	46.00073828	16
0	98396	46.00077332	16
0	98503	46.00086132	14
0	98504	46.00086132	15
0	98505	46.00086132	16
0	98506	46.00086132	17
0	98507	46.00086132	18
0	98525	46.00089636	18
0	98603	46.00096276	18
0	98622	46.00098436	18
0	98623	46.00098436	19
0	98624	46.00098436	20
0	98625	46.00098436	21
0	98630	46.00099124	22
0	98742	46.0011074	19
0	98743	46.0011074	20
0	98744	46.0011074	21
0	98745	46.0011074	22
0	98846	46.00123044	20
0	98847	46.00123044	21
0	98848	46.00123044	22
0	98849	46.00123044	23
0	98886	46.00135348	20
0	98887	46.00135348	21
0	98888	46.00135348	22
0	98889	46.00135348	23
0	98899	46.00139468	23
0	98912	46.0014462	23
0	98926	46.00147652	23
0	98927	46.00147652	24
0	98946	46.00155316	23
0	98952	46.0015754	23
0	99787	47.00012308	0
0	99788	47.00012308	1
0	99789	47.00012308	2
0	99790	47.00012308	3
0	99791	47.00012308	4
0	99894	47.00024612	2
0	99895	47.00024612	3
0	99896	47.00024612	4
0	99897	47.00024612	5
0	99898	47.00024612	6
0	99915	47.00028116	6
0	100013	47.00036916	4
0	100014	47.00036916	5
0	100015	47.00036916	6
0	100016	47.00036916	7
0	100017	47.00036916	8
0	100035	47.0004042	8
0	100135	47.0004922	7
0	100136	47.0004922	8
0	100137	47.0004922	9
0	100138	47.0004922	10
0	100139	47.0004922	11
0	100157	47.00052724	11
0	100259	47.00061524	9
0	100260	47.00061524	10
0	100261	47.00061524	11
0	100262	47.00061524	12
0	100263	47.00061524	13
0	100286	47.00065028	13
0	100386	47.00073828	12
0	100387	47.00073828	13
0	100388	47.00073828	14
0	100389	47.00073828	15
0	100390	47.00073828	16
0	100408	47.00077332	16
0	100515	47.00086132	14
0	100516	47.00086132	15
0	100517	47.00086132	16
0	100518	47.00086132	17
0	100519	47.00086132	18
0	100537	47.00089636	18
0	100633	47.00098436	17
0	100634	47.00098436	18
0	100635	47.00098436	19
0	100636	47.00098436	20
0	100637	47.00098436	21
0	100643	47.00099108	22
0	100646	47.00099124	23
0	100757	47.0011074	20
0	100758	47.0011074	21
0	100759	47.0011074	22
0	100760	47.0011074	23
0	100805	47.00117052	23
0	100857	47.00122324	22
0	100861	47.00122596	23
0	100868	47.00123044	24
0	100971	47.00135348	21
0	101072	47.00147652	19
0	101235	47.00159956	16
0	101252	47.00163844	16
0	102010	48.00012308	0
0	102011	48.00012308	1
0	102012	48.00012308	2
0	102013	48.00012308	3
0	102014	48.00012308	4
0	102117	48.00024612	2
0	102118	48.00024612	3
0	102119	48.00024612	4
0	102120	48.00024612	5
0	102121	48.00024612	6
0	102138	48.00028116	6
0	102236	48.00036916	4
0	102237	48.00036916	5
0	102238	48.00036916	6
0	102239	48.00036916	7
0	102240	48.00036916	8
0	102258	48.0004042	8
0	102358	48.0004922	7
0	102359	48.0004922	8
0	102360	48.0004922	9
0	102361	48.0004922	10
0	102362	48.0004922	11
0	102380	48.00052724	11
0	102482	48.00061524	9
0	102483	48.00061524	10
0	102484	48.00061524	11
0	102485	48.00061524	12
0	102486	48.00061524	13
0	102509	48.00065028	13
0	102609	48.00073828	12
0	102610	48.00073828	13
0	102611	48.00073828	14
0	102612	48.00073828	15
0	102613	48.00073828	16
0	102631	48.00077332	16
0	102738	48.00086132	14
0	102739	48.00086132	15
0	102740	48.00086132	16
0	102741	48.00086132	17
0	102742	48.00086132	18
0	102760	48.00089636	18
0	102856	48.00098436	17
0	102857	48.00098436	18
0	102858	48.00098436	19
0	102859	48.00098436	20
0	102860	48.00098436	21
0	102865	48.00099124	22
0	102961	48.0010814	20
0	102968	48.0011058	20
0	102981	48.0011074	21
0	102982	48.0011074	22
0	102983	48.0011074	23
0	103085	48.00123044	21
0	103086	48.00123044	22
0	103087	48.00123044	23
0	103139	48.00129444	22
0	103182	48.0013158	22
0	103198	48.00135348	22
0	103203	48.00136116	23
0	104163	49.00012308	0
0	104164	49.00012308	1
0	104165	49.00012308	2
0	104166	49.00012308	3
0	104167	49.00012308	4
0	104270	49.00024612	2
0	104271	49.00024612	3
0	104272	49.00024612	4
0	104273	49.00024612	5
0	104274	49.00024612	6
0	104291	49.00028116	6
0	104389	49.00036916	4
0	104390	49.00036916	5
0	104391	49.00036916	6
0	104392	49.00036916	7
0	104393	49.00036916	8
0	104411	49.0004042	8
0	104511	49.0004922	7
0	104512	49.0004922	8
0	104513	49.0004922	9
0	104514	49.0004922	10
0	104515	49.0004922	11
0	104533	49.00052724	11
0	104635	49.00061524	9
0	104636	49.00061524	10
0	104637	49.00061524	11
0	104638	49.00061524	12
0	104639	49.00061524	13
0	104662	49.00065028	13
0	104762	49.00073828	12
0	104763	49.00073828	13
0	104764	49.00073828	14
0	104765	49.00073828	15
0	104766	49.00073828	16
0	104784	49.00077332	16
0	104891	49.00086132	14
0	104892	49.00086132	15
0	104893	49.00086132	16
0	104894	49.00086132	17
0	104895	49.00086132	18
0	104913	49.00089636	18
0	105009	49.00098436	17
0	105010	49.00098436	18
0	105011	49.00098436	19
0	105012	49.00098436	20
0	105013	49.00098436	21
0	105018	49.00099124	22
0	105132	49.0011074	19
0	105133	49.0011074	20
0	105134	49.0011074	21
0	105135	49.0011074	22
0	105136	49.0011074	23
0	105309	49.00123044	21
0	105310	49.00123044	22
0	105311	49.00123044	23
0	105312	49.00123044	24
0	105313	49.00123044	25
0	105360	49.00135348	22
0	105361	49.00135348	23
0	105362	49.00135348	24
0	105363	49.00135348	25
0	105364	49.00135348	26
0	105386	49.00147044	24
0	105403	49.00147652	25
0	105404	49.00147652	26
0	105405	49.00147652	27
0	105406	49.00147652	28
0	105418	49.00152436	27
0	105422	49.00154308	28
0	105435	49.00156476	28
0	105441	49.00159956	28
0	105445	49.00162044	29
0	106359	50.00012308	0
0	106360	50.00012308	1
0	106361	50.00012308	2
0	106362	50.00012308	3
0	106363	50.00012308	4
0	106466	50.00024612	2
0	106467	50.00024612	3
0	106468	50.00024612	4
0	106469	50.00024612	5
0	106470	50.00024612	6
0	106487	50.00028116	6
0	106585	50.00036916	4
0	106586	50.00036916	5
0	106587	50.00036916	6
0	106588	50.00036916	7
0	106589	50.00036916	8
0	106607	50.0004042	8
0	106707	50.0004922	7
0	106708	50.0004922	8
0	106709	50.0004922	9
0	106710	50.0004922	10
0	106711	50.0004922	11
0	106729	50.00052724	11
0	106831	50.00061524	9
0	106832	50.00061524	10
0	106833	50.00061524	11
0	106834	50.00061524	12
0	106835	50.00061524	13
0	106858	50.00065028	13
0	106958	50.00073828	12
0	106959	50.00073828	13
0	106960	50.00073828	14
0	106961	50.00073828	15
0	106962	50.00073828	16
0	106980	50.00077332	16
0	107087	50.00086132	14
0	107088	50.00086132	15
0	107089	50.00086132	16
0	107090	50.00086132	17
0	107091	50.00086132	18
0	107109	50.00089636	18
0	107218	50.00098436	17
0	107219	50.00098436	18
0	107220	50.00098436	19
0	107221	50.00098436	20
0	107222	50.00098436	21
0	107241	50.00099124	22
0	107284	50.00101628	22
0	107326	50.0011074	20
0	107327	50.0011074	21
0	107328	50.0011074	22
0	107329	50.0011074	23
0	107339	50.00115172	23
0	107354	50.00122468	22
0	107361	50.00123044	23
0	107362	50.00123044	24
0	107379	50.0012978	23
0	107394	50.00135348	22
0	107420	50.00147652	20
0	107441	50.0015842	18
0	108197	51.00012308	0
0	108198	51.00012308	1
0	108199	51.00012308	2
0	108200	51.00012308	3
0	108201	51.00012308	4
0	108304	51.00024612	2
0	108305	51.00024612	3
0	108306	51.00024612	4
0	108307	51.00024612	5
0	108308	51.00024612	6
0	108325	51.00028116	6
0	108423	51.00036916	4
0	108424	51.00036916	5
0	108425	51.00036916	6
0	108426	51.00036916	7
0	108427	51.00036916	8
0	108445	51.0004042	8
0	108545	51.0004922	7
0	108546	51.0004922	8
0	108547	51.0004922	9
0	108548	51.0004922	10
0	108549	51.0004922	11
0	108567	51.00052724	11
0	108669	51.00061524	9
0	108670	51.00061524	10
0	108671	51.00061524	11
0	108672	51.00061524	12
0	108673	51.00061524	13
0	108696	51.00065028	13
0	108796	51.00073828	12
0	108797	51.00073828	13
0	108798	51.00073828	14
0	108799	51.00073828	15
0	108800	51.00073828	16
0	108818	51.00077332	16
0	108925	51.00086132	14
0	108926	51.00086132	15
0	108927	51.00086132	16
0	108928	51.00086132	17
0	108929	51.00086132	18
0	108947	51.00089636	18
0	109044	51.00098436	17
0	109045	51.00098436	18
0	109046	51.00098436	19
0	109047	51.00098436	20
0	109048	51.00098436	21
0	109052	51.00099124	22
0	109058	51.00100652	22
0	109102	51.00104212	22
0	109161	51.00110724	21
0	109166	51.0011074	22
0	109167	51.0011074	23
0	109191	51.00123044	21
0	109192	51.00123044	22
0	109223	51.00135348	19
0	109224	51.00135348	20
0	109243	51.0014394	19
0	109247	51.001453	20
0	110007	52.00012308	0
0	110008	52.00012308	1
0	110009	52.00012308	2
0	110010	52.00012308	3
0	110011	52.00012308	4
0	110114	52.00024612	2
0	110115	52.00024612	3
0	110116	52.00024612	4
0	110117	52.00024612	5
0	110118	52.00024612	6
0	110135	52.00028116	6
0	110233	52.00036916	4
0	110234	52.00036916	5
0	110235	52.00036916	6
0	110236	52.00036916	7
0	110237	52.00036916	8
0	110255	52.0004042	8
0	110355	52.0004922	7
0	110356	52.0004922	8
0	110357	52.0004922	9
0	110358	52.0004922	10
0	110359	52.0004922	11
0	110377	52.00052724	11
0	110479	52.00061524	9
0	110480	52.00061524	10
0	110481	52.00061524	11
0	110482	52.00061524	12
0	110483	52.00061524	13
0	110506	52.00065028	13
0	110606	52.00073828	12
0	110607	52.00073828	13
0	110608	52.00073828	14
0	110609	52.00073828	15
0	110610	52.00073828	16
0	110628	52.00077332	16
0	110735	52.00086132	14
0	110736	52.00086132	15
0	110737	52.00086132	16
0	110738	52.00086132	17
0	110739	52.00086132	18
0	110746	52.00088612	19
0	110761	52.00089636	19
0	110854	52.00098436	18
0	110855	52.00098436	19
0	110856	52.00098436	20
0	110857	52.00098436	21
0	110862	52.00099124	22
0	110973	52.0011074	19
0	110974	52.0011074	20
0	110975	52.0011074	21
0	110976	52.0011074	22
0	110988	52.00114196	22
0	111007	52.00115652	23
0	111148	52.00123044	22
0	111149	52.00123044	23
0	111161	52.00125156	23
0	111188	52.00135348	21
0	111214	52.00147652	19
0	111218	52.00148724	20
0	111998	53.00012308	0
0	111999	53.00012308	1
0	112000	53.00012308	2
0	112001	53.00012308	3
0	112002	53.00012308	4
0	112105	53.00024612	2
0	112106	53.00024612	3
0	112107	53.00024612	4
0	112108	53.00024612	5
0	112109	53.00024612	6
0	112126	53.00028116	6
0	112224	53.00036916	4
0	112225	53.00036916	5
0	112226	53.00036916	6
0	112227	53.00036916	7
0	112228	53.00036916	8
0	112246	53.0004042	8
0	112346	53.0004922	7
0	112347	53.0004922	8
0	112348	53.0004922	9
0	112349	53.0004922	10
0	112350	53.0004922	11
0	112368	53.00052724	11
0	112470	53.00061524	9
0	112471	53.00061524	10
0	112472	53.00061524	11
0	112473	53.00061524	12
0	112474	53.00061524	13
0	112497	53.00065028	13
0	112597	53.00073828	12
0	112598	53.00073828	13
0	112599	53.00073828	14
0	112600	53.00073828	15
0	112601	53.00073828	16
0	112619	53.00077332	16
0	112726	53.00086132	14
0	112727	53.00086132	15
0	112728	53.00086132	16
0	112729	53.00086132	17
0	112730	53.00086132	18
0	112748	53.00089636	18
0	112844	53.00098436	17
0	112845	53.00098436	18
0	112846	53.00098436	19
0	112847	53.00098436	20
0	112848	53.00098436	21
0	112853	53.00099124	22
0	112949	53.001091	20
0	112968	53.0011074	20
0	112969	53.0011074	21
0	112970	53.0011074	22
0	112971	53.0011074	23
0	113068	53.00123028	21
0	113077	53.00123044	22
0	113078	53.00123044	23
0	113079	53.00123044	24
0	113176	53.00133468	22
0	113189	53.00135348	22
0	113190	53.00135348	23
0	113335	53.00147652	21
0	113336	53.00147652	22
0	113388	53.00157004	20
0	113394	53.00159956	20
0	113400	53.00162924	20
0	114212	54.00012308	0
0	114213	54.00012308	1
0	114214	54.00012308	2
0	114215	54.00012308	3
0	114216	54.00012308	4
0	114319	54.00024612	2
0	114320	54.00024612	3
0	114321	54.00024612	4
0	114322	54.00024612	5
0	114323	54.00024612	6
0	114340	54.00028116	6
0	114438	54.00036916	4
0	114439	54.00036916	5
0	114440	54.00036916	6
0	114441	54.00036916	7
0	114442	54.00036916	8
0	114460	54.0004042	8
0	114560	54.0004922	7
0	114561	54.0004922	8
0	114562	54.0004922	9
0	114563	54.0004922	10
0	114564	54.0004922	11
0	114582	54.00052724	11
0	114684	54.00061524	9
0	114685	54.00061524	10
0	114686	54.00061524	11
0	114687	54.00061524	12
0	114688	54.00061524	13
0	114711	54.00065028	13
0	114811	54.00073828	12
0	114812	54.00073828	13
0	114813	54.00073828	14
0	114814	54.00073828	15
0	114815	54.00073828	16
0	114833	54.00077332	16
0	114917	54.00083484	15
0	114941	54.00086132	15
0	114942	54.00086132	16
0	114943	54.00086132	17
0	114944	54.00086132	18
0	114962	54.00089636	18
0	115027	54.00093804	18
0	115057	54.00098436	18
0	115058	54.00098436	19
0	115059	54.00098436	20
0	115063	54.00099124	21
0	115168	54.0011074	18
0	115169	54.0011074	19
0	115170	54.0011074	20
0	115197	54.00123044	18
0	115198	54.00123044	19
0	115199	54.00123044	20
0	115233	54.00135348	17
0	115234	54.00135348	18
0	115235	54.00135348	19
0	115267	54.00147652	17
0	115268	54.00147652	18
0	115269	54.00147652	19
0	115288	54.00154836	18
0	115296	54.00159684	17
0	115300	54.00159956	18
0	115310	54.00165708	18
0	116098	55.00012308	0
0	116099	55.00012308	1
0	116100	55.00012308	2
0	116101	55.00012308	3
0	116102	55.00012308	4
0	116205	55.00024612	2
0	116206	55.00024612	3
0	116207	55.00024612	4
0	116208	55.00024612	5
0	116209	55.00024612	6
0	116226	55.00028116	6
0	116324	55.00036916	4
0	116325	55.00036916	5
0	116326	55.00036916	6
0	116327	55.00036916	7
0	116328	55.00036916	8
0	116346	55.0004042	8
0	116446	55.0004922	7
0	116447	55.0004922	8
0	116448	55.0004922	9
0	116449	55.0004922	10
0	116450	55.0004922	11
0	116468	55.00052724	11
0	116570	55.00061524	9
0	116571	55.00061524	10
0	116572	55.00061524	11
0	116573	55.00061524	12
0	116574	55.00061524	13
0	116597	55.00065028	13
0	116697	55.00073828	12
0	116698	55.00073828	13
0	116699	55.00073828	14
0	116700	55.00073828	15
0	116701	55.00073828	16
0	116719	55.00077332	16
0	116826	55.00086132	14
0	116827	55.00086132	15
0	116828	55.00086132	16
0	116829	55.00086132	17
0	116830	55.00086132	18
0	116848	55.00089636	18
0	116944	55.00098436	17
0	116945	55.00098436	18
0	116946	55.00098436	19
0	116947	55.00098436	20
0	116948	55.00098436	21
0	116953	55.00099124	22
0	117050	55.00109884	20
0	117068	55.0011074	20
[...]
10	54721	25.000796516	0
10	54848	25.000919556	0
10	54962	25.001042596	0
10	55075	25.001165636	0
10	55178	25.001288676	0
10	55274	25.001411716	0
10	55385	25.001534756	0
10	55464	25.001587716	0
10	56253	26.000181316	0
10	56370	26.000304356	0
10	56487	26.000427396	0
10	56611	26.000550436	0
10	56738	26.000673476	0
10	56862	26.000796516	0
10	56989	26.000919556	0
10	57107	26.001042596	0
10	57224	26.001165636	0
10	57347	26.001288676	0
10	57455	26.001411716	0
10	57570	26.001534756	0
10	57649	26.001587396	0
10	58620	27.000181316	0
10	58737	27.000304356	0
10	58854	27.000427396	0
10	58978	27.000550436	0
10	59105	27.000673476	0
10	59229	27.000796516	0
10	59360	27.000919556	0
10	59474	27.001042596	0
10	59587	27.001165636	0
10	59702	27.001288676	0
10	59806	27.001411716	0
10	59911	27.001522516	0
10	60809	28.000181316	0
10	60926	28.000304356	0
10	61043	28.000427396	0
10	61167	28.000550436	0
10	61294	28.000673476	0
10	61418	28.000796516	0
10	61553	28.000919556	0
10	61626	28.000954556	0
10	62619	29.000181316	0
10	62736	29.000304356	0
10	62853	29.000427396	0
10	62977	29.000550436	0
10	63104	29.000673476	0
10	63228	29.000796516	0
10	63359	29.000919556	0
10	63473	29.001042596	0
10	63586	29.001165636	0
10	63705	29.001288676	0
10	63782	29.001323676	0
10	64856	30.000181316	0
10	64974	30.000304356	0
10	65090	30.000427396	0
10	65214	30.000550436	0
10	65341	30.000673476	0
10	65465	30.000796516	0
10	65604	30.000919556	0
10	65685	30.000977636	0
10	66612	31.000181316	0
10	66729	31.000304356	0
10	66846	31.000427396	0
10	66970	31.000550436	0
10	67097	31.000673476	0
10	67221	31.000796516	0
10	67352	31.000919556	0
10	67470	31.001042596	0
10	67579	31.001165636	0
10	67690	31.001288676	0
10	67794	31.001411716	0
10	67901	31.001534756	0
10	68005	31.001657796	0
10	68091	31.001714436	0
10	68915	32.000181316	0
10	69032	32.000304356	0
10	69149	32.000427396	0
10	69273	32.000550436	0
10	69400	32.000673476	0
10	69524	32.000796516	0
10	69655	32.000919556	0
10	69773	32.001042596	0
10	69882	32.001165636	0
10	69959	32.001205396	0
10	70842	33.000181316	0
10	70959	33.000304356	0
10	71076	33.000427396	0
10	71200	33.000550436	0
10	71327	33.000673476	0
10	71451	33.000796516	0
10	71578	33.000919556	0
10	71700	33.001042596	0
10	71813	33.001165636	0
10	71928	33.001288676	0
10	72029	33.001357396	0
10	73028	34.000181316	0
10	73145	34.000304356	0
10	73262	34.000427396	0
10	73386	34.000550436	0
10	73513	34.000673476	0
10	73637	34.000796516	0
10	73764	34.000919556	0
10	73886	34.001042596	0
10	74003	34.001165636	0
10	74106	34.001288676	0
10	74195	34.001362916	0
10	75050	35.000181316	0
10	75167	35.000304356	0
10	75284	35.000427396	0
10	75408	35.000550436	0
10	75535	35.000673476	0
10	75659	35.000796516	0
10	75786	35.000919556	0
10	75904	35.001042596	0
10	76017	35.001165636	0
10	76132	35.001288676	0
10	76209	35.001323676	0
10	77123	36.000181316	0
10	77240	36.000304356	0
10	77357	36.000427396	0
10	77481	36.000550436	0
10	77608	36.000673476	0
10	77732	36.000796516	0
10	77863	36.000919556	0
10	77977	36.001042596	0
10	78090	36.001165636	0
10	78205	36.001288676	0
10	78309	36.001411716	0
10	78403	36.001486756	0
10	79250	37.000181316	0
10	79367	37.000304356	0
10	79484	37.000427396	0
10	79608	37.000550436	0
10	79735	37.000673476	0
10	79859	37.000796516	0
10	79990	37.000919556	0
10	80108	37.001042596	0
10	80217	37.001165636	0
10	80322	37.001276436	0
10	81215	38.000181316	0
10	81332	38.000304356	0
10	81449	38.000427396	0
10	81573	38.000550436	0
10	81700	38.000673476	0
10	81824	38.000796516	0
10	81951	38.000919556	0
10	82069	38.001042596	0
10	82183	38.001165636	0
10	82289	38.001288676	0
10	82368	38.001341476	0
10	83156	39.000181316	0
10	83273	39.000304356	0
10	83390	39.000427396	0
10	83514	39.000550436	0
10	83641	39.000673476	0
10	83765	39.000796516	0
10	83892	39.000919556	0
10	84014	39.001042596	0
10	84131	39.001165636	0
10	84238	39.001288676	0
10	84338	39.001411716	0
10	84449	39.001534756	0
10	84541	39.001645556	0
10	85374	40.000181316	0
10	85485	40.000304356	0
10	85600	40.000427396	0
10	85714	40.000550436	0
10	85826	40.000673476	0
10	85940	40.000796516	0
10	86052	40.000919556	0
10	86166	40.001042596	0
10	86278	40.001165636	0
10	86390	40.001276436	0
10	87556	41.000181316	0
10	87667	41.000304356	0
10	87782	41.000427396	0
10	87896	41.000550436	0
10	88008	41.000673476	0
10	88122	41.000796516	0
10	88238	41.000919556	0
10	88348	41.001042596	0
10	88448	41.001165636	0
10	88550	41.001288676	0
10	88650	41.001411716	0
10	88760	41.001534756	0
10	88833	41.001569756	0
10	89831	42.000181316	0
10	89942	42.000304356	0
10	90057	42.000427396	0
10	90171	42.000550436	0
10	90283	42.000673476	0
10	90397	42.000796516	0
10	90509	42.000919556	0
10	90631	42.001042596	0
10	90739	42.001165636	0
10	90841	42.001288676	0
10	90941	42.001411716	0
10	91039	42.001526116	0
10	92072	43.000181316	0
10	92183	43.000304356	0
10	92298	43.000427396	0
10	92412	43.000550436	0
10	92524	43.000673476	0
10	92638	43.000796516	0
10	92754	43.000919556	0
10	92864	43.001042596	0
10	92968	43.001165636	0
10	93066	43.001288676	0
10	93162	43.001411716	0
10	93247	43.001474196	0
10	94245	44.000181316	0
10	94362	44.000304356	0
10	94479	44.000427396	0
10	94603	44.000550436	0
10	94730	44.000673476	0
10	94854	44.000796516	0
10	94981	44.000907316	0
10	96021	45.000181316	0
10	96138	45.000304356	0
10	96255	45.000427396	0
10	96379	45.000550436	0
10	96506	45.000673476	0
10	96630	45.000796516	0
10	96769	45.000919556	0
10	96842	45.000954556	0
10	97807	46.000181316	0
10	97924	46.000304356	0
10	98041	46.000427396	0
10	98165	46.000550436	0
10	98292	46.000673476	0
10	98416	46.000796516	0
10	98543	46.000919556	0
10	98661	46.001042596	0
10	98774	46.001153396	0
10	99819	47.000181316	0
10	99936	47.000304356	0
10	100053	47.000427396	0
10	100177	47.000550436	0
10	100304	47.000673476	0
10	100428	47.000796516	0
10	100555	47.000919556	0
10	100677	47.001042596	0
10	100790	47.001165636	0
10	100905	47.001288676	0
10	101001	47.001411716	0
10	101108	47.001534756	0
10	101181	47.001569756	0
10	102042	48.000181316	0
10	102159	48.000304356	0
10	102276	48.000427396	0
10	102400	48.000550436	0
10	102527	48.000673476	0
10	102651	48.000796516	0
10	102778	48.000919556	0
10	102896	48.001042596	0
10	103013	48.001165636	0
10	103124	48.001288676	0
10	103232	48.001411716	0
10	103329	48.001522516	0
10	104195	49.000181316	0
10	104312	49.000304356	0
10	104429	49.000427396	0
10	104553	49.000550436	0
10	104680	49.000673476	0
10	104804	49.000796516	0
10	104931	49.000919556	0
10	105049	49.001042596	0
10	105170	49.001165636	0
10	105243	49.001204916	0
10	106391	50.000181316	0
10	106508	50.000304356	0
10	106625	50.000427396	0
10	106749	50.000550436	0
10	106876	50.000673476	0
10	107000	50.000796516	0
10	107127	50.000919556	0
10	107233	50.000990356	0
10	108229	51.000181316	0
10	108346	51.000304356	0
10	108463	51.000427396	0
10	108587	51.000550436	0
10	108714	51.000673476	0
10	108838	51.000796516	0
10	108965	51.000919556	0
10	109087	51.001035796	0
10	110039	52.000181316	0
10	110156	52.000304356	0
10	110273	52.000427396	0
10	110397	52.000550436	0
10	110524	52.000673476	0
10	110648	52.000796516	0
10	110779	52.000919556	0
10	110893	52.001042596	0
10	111018	52.001165636	0
10	111091	52.001200636	0
10	112030	53.000181316	0
10	112147	53.000304356	0
10	112264	53.000427396	0
10	112388	53.000550436	0
10	112515	53.000673476	0
10	112639	53.000796516	0
10	112766	53.000919556	0
10	112884	53.001042596	0
10	113001	53.001165636	0
10	113116	53.001288676	0
10	113224	53.001411716	0
10	113305	53.001467396	0
10	114244	54.000181316	0
10	114361	54.000304356	0
10	114478	54.000427396	0
10	114602	54.000550436	0
10	114729	54.000673476	0
10	114853	54.000796516	0
10	114980	54.000919556	0
10	115094	54.001034756	0
10	116130	55.000181316	0
10	116247	55.000304356	0
10	116364	55.000427396	0
10	116488	55.000550436	0
10	116615	55.000673476	0
10	116739	55.000796516	0
10	116866	55.000919556	0
10	116984	55.001042596	0
10	117105	55.001165636	0
10	117224	55.001288676	0
10	117324	55.001411716	0
10	117397	55.001446716	0
10	118277	56.000181316	0
10	118394	56.000304356	0
10	118511	56.000427396	0
10	118635	56.000550436	0
10	118762	56.000673476	0
10	118886	56.000796516	0
10	119017	56.000919396	0
10	119969	57.000181316	0
10	120086	57.000304356	0
10	120203	57.000427396	0
10	120327	57.000550436	0
10	120454	57.000673476	0
10	120578	57.000796516	0
10	120709	57.000919556	0
10	120823	57.001042596	0
10	120944	57.001165636	0
10	121051	57.001288676	0
10	121151	57.001411716	0
10	121262	57.001534756	0
10	121339	57.001569756	0
10	122208	58.000181316	0
10	122325	58.000304356	0
10	122442	58.000427396	0
10	122566	58.000550436	0
10	122693	58.000673476	0
10	122817	58.000796516	0
10	122944	58.000919556	0
10	123066	58.001042596	0
10	123179	58.001165636	0
10	123294	58.001288676	0
10	123402	58.001411716	0
10	123521	58.001534756	0
10	123598	58.001569756	0
10	124541	59.000181316	0
10	124658	59.000304356	0
10	124775	59.000427396	0
10	124899	59.000550436	0
10	125026	59.000673476	0
10	125150	59.000796516	0
10	125277	59.000919556	0
10	125395	59.001042596	0
10	125508	59.001165636	0
10	125623	59.001288676	0
10	125731	59.001411716	0
10	125804	59.001446716	0
10	126964	60.000181316	0
10	127082	60.000304356	0
10	127198	60.000427396	0
10	127322	60.000550436	0
10	127449	60.000673476	0
10	127573	60.000796516	0
10	127700	60.000919556	0
10	127818	60.001042596	0
10	127935	60.001165636	0
10	128049	60.001288676	0
10	128162	60.001399476	0
10	129142	61.000208356	0
10	129259	61.000319156	0
10	129374	61.000429956	0
10	129498	61.000550436	0
10	129625	61.000673476	0
10	129749	61.000796516	0
10	129876	61.000919556	0
10	129994	61.001042596	0
10	130107	61.001165636	0
10	130214	61.001288676	0
10	130314	61.001411716	0
10	130415	61.001522516	0
10	131257	62.000069636	0
10	131327	62.000092036	0
10	131354	62.000097592	5.556e-06
10	131705	62.000355468	0
10	131825	62.000478508	0
10	131947	62.000601548	0
10	132071	62.000724588	0
10	132193	62.000847628	0
10	132322	62.000970668	0
10	132444	62.001093708	0
10	132580	62.001216748	0
10	132682	62.001339788	0
10	132787	62.001462828	0
10	132898	62.001585868	0
10	132994	62.001708908	0
10	133101	62.001831948	0
10	133172	62.001866948	0
10	133671	62.005732036	0
10	134100	63.000064996	0
10	134262	63.000181316	0
10	134375	63.000304356	0
10	134492	63.000427396	0
10	134616	63.000550436	0
10	134743	63.000673476	0
10	134867	63.000796516	0
10	134994	63.000914116	0
10	135780	63.006282236	0
10	136167	64.000064996	0
10	136327	64.000181316	0
10	136440	64.000304356	0
10	136557	64.000427396	0
10	136681	64.000550436	0
10	136808	64.000673476	0
10	136932	64.000796516	0
10	137059	64.000919556	0
10	137182	64.001042596	0
10	137286	64.001165636	0
10	137401	64.001288676	0
10	137471	64.001323676	0
10	138258	65.000064996	0
10	138422	65.000181316	0
10	138535	65.000304356	0
10	138652	65.000427396	0
10	138776	65.000550436	0
10	138903	65.000673476	0
10	139027	65.000796516	0
10	139154	65.000919556	0
10	139281	65.001042596	0
10	139351	65.001077596	0
10	140229	65.007215916	0
10	140504	66.000064996	0
10	140666	66.000181316	0
10	140779	66.000304356	0
10	140896	66.000427396	0
10	141020	66.000550436	0
10	141147	66.000673476	0
10	141271	66.000796516	0
10	141398	66.000919556	0
10	141521	66.001042596	0
10	141625	66.001165636	0
10	141740	66.001288676	0
10	141833	66.001361236	0
10	142533	66.006659196	0
10	142867	67.000181316	0
10	142984	67.000304356	0
10	143101	67.000427396	0
10	143225	67.000550436	0
10	143352	67.000673476	0
10	143476	67.000796516	0
10	143603	67.000919556	0
10	143721	67.001042596	0
10	143830	67.001165636	0
10	143941	67.001288676	0
10	144053	67.001411716	0
10	144156	67.001534756	0
10	144252	67.001645556	0
10	145094	68.000181316	0
10	145211	68.000304356	0
10	145328	68.000427396	0
10	145452	68.000550436	0
10	145579	68.000673476	0
10	145703	68.000796516	0
10	145830	68.000919556	0
10	145948	68.001042596	0
10	146073	68.001165636	0
10	146180	68.001288676	0
10	146284	68.001411716	0
10	146357	68.001446716	0
10	147259	69.000181316	0
10	147376	69.000304356	0
10	147493	69.000427396	0
10	147617	69.000550436	0
10	147744	69.000673476	0
10	147868	69.000796516	0
10	147995	69.000919556	0
10	148114	69.001042596	0
10	148201	69.001101316	0
10	149216	70.000181316	0
10	149333	70.000304356	0
10	149450	70.000427396	0
10	149574	70.000550436	0
10	149701	70.000673476	0
10	149825	70.000796516	0
10	149952	70.000919556	0
10	150074	70.001042596	0
10	150191	70.001165636	0
10	150298	70.001278836	0
10	151243	71.000181316	0
10	151360	71.000304356	0
10	151477	71.000427396	0
10	151601	71.000550436	0
10	151728	71.000673476	0
10	151852	71.000796516	0
10	151979	71.000919556	0
10	152093	71.001042596	0
10	152206	71.001165636	0
10	152325	71.001288676	0
10	152429	71.001411716	0
10	152548	71.001534756	0
10	152621	71.001569756	0
10	153548	72.000181316	0
10	153665	72.000304356	0
10	153782	72.000427396	0
10	153906	72.000550436	0
10	154033	72.000673476	0
10	154157	72.000796516	0
10	154284	72.000919556	0
10	154406	72.001042596	0
10	154519	72.001165636	0
10	154638	72.001288676	0
10	154742	72.001411716	0
10	154857	72.001534756	0
10	154935	72.001575156	0
10	155878	73.000181316	0
10	155995	73.000304356	0
10	156112	73.000427396	0
10	156236	73.000550436	0
10	156363	73.000673476	0
10	156487	73.000796516	0
10	156614	73.000919556	0
10	156732	73.001042596	0
10	156849	73.001165636	0
10	156968	73.001288676	0
10	157076	73.001411716	0
10	157187	73.001534756	0
10	157295	73.001645556	0
10	158266	74.000181316	0
10	158383	74.000304356	0
10	158500	74.000427396	0
10	158624	74.000550436	0
10	158751	74.000673476	0
10	158875	74.000796516	0
10	159002	74.000919556	0
10	159120	74.001042596	0
10	159237	74.001165636	0
10	159356	74.001288676	0
10	159468	74.001411716	0
10	159562	74.001475236	0
10	160495	75.000181316	0
10	160612	75.000304356	0
10	160729	75.000427396	0
10	160853	75.000550436	0
10	160980	75.000673476	0
10	161104	75.000796516	0
10	161235	75.000919556	0
10	161349	75.001042596	0
10	161462	75.001153396	0
10	162414	76.000181316	0
10	162531	76.000304356	0
10	162648	76.000427396	0
10	162772	76.000550436	0
10	162899	76.000673476	0
10	163023	76.000796516	0
10	163150	76.000919556	0
10	163268	76.001042596	0
10	163381	76.001165636	0
10	163492	76.001288676	0
10	163585	76.001363716	0
10	164451	77.000181316	0
10	164568	77.000304356	0
10	164685	77.000427396	0
10	164809	77.000550436	0
10	164936	77.000673476	0
10	165060	77.000796516	0
10	165187	77.000919556	0
10	165305	77.001042596	0
10	165418	77.001165636	0
10	165523	77.001276436	0
10	166447	78.000181316	0
10	166564	78.000304356	0
10	166681	78.000427396	0
10	166805	78.000550436	0
10	166932	78.000673476	0
10	167056	78.000796516	0
10	167183	78.000919556	0
10	167301	78.001042596	0
10	167418	78.001165636	0
10	167529	78.001288676	0
10	167602	78.001323676	0
10	168499	79.000181316	0
10	168616	79.000304356	0
10	168733	79.000427396	0
10	168857	79.000550436	0
10	168984	79.000673476	0
10	169108	79.000796516	0
10	169235	79.000919556	0
10	169353	79.001042596	0
10	169466	79.001165636	0
10	169573	79.001288676	0
10	169673	79.001411716	0
10	169754	79.001466196	0
10	170602	80.000181316	0
10	170719	80.000304356	0
10	170836	80.000427396	0
10	170960	80.000550436	0
10	171087	80.000673476	0
10	171211	80.000796516	0
10	171338	80.000919556	0
10	171456	80.001042596	0
10	171573	80.001165636	0
10	171688	80.001288676	0
10	171792	80.001411716	0
10	171873	80.001459236	0
10	172796	81.000181316	0
10	172913	81.000304356	0
10	173030	81.000427396	0
10	173154	81.000550436	0
10	173281	81.000673476	0
10	173405	81.000796516	0
10	173532	81.000919556	0
10	173650	81.001042596	0
10	173775	81.001165636	0
10	173848	81.001205156	0
10	174913	82.000181316	0
10	175030	82.000304356	0
10	175147	82.000427396	0
10	175271	82.000550436	0
10	175398	82.000673476	0
10	175522	82.000796516	0
10	175649	82.000919556	0
10	175771	82.001042596	0
10	175884	82.001153396	0
10	176860	83.000181316	0
10	176977	83.000304356	0
10	177094	83.000427396	0
10	177218	83.000550436	0
10	177345	83.000673476	0
10	177469	83.000796516	0
10	177596	83.000919556	0
10	177712	83.001032916	0
10	178657	84.000181316	0
10	178768	84.000304356	0
10	178883	84.000427396	0
10	178997	84.000550436	0
10	179109	84.000673476	0
10	179223	84.000796516	0
10	179335	84.000919556	0
10	179453	84.001042596	0
10	179561	84.001153396	0
10	180683	85.000181316	0
10	180794	85.000304356	0
10	180909	85.000427396	0
10	181023	85.000550436	0
10	181135	85.000673476	0
10	181249	85.000796516	0
10	181361	85.000919556	0
10	181479	85.001042596	0
10	181587	85.001165636	0
10	181701	85.001288676	0
10	181797	85.001411716	0
10	181891	85.001534756	0
10	181983	85.001657796	0
10	182996	86.000181316	0
10	183107	86.000304356	0
10	183222	86.000427396	0
10	183336	86.000550436	0
10	183448	86.000673476	0
10	183562	86.000796516	0
10	183678	86.000919556	0
10	183788	86.001042596	0
10	183896	86.001165636	0
10	184010	86.001288676	0
10	184114	86.001411716	0
10	184191	86.001446716	0
10	185271	87.000181316	0
10	185382	87.000304356	0
10	185497	87.000427396	0
10	185611	87.000550436	0
10	185723	87.000673476	0
10	185837	87.000796516	0
10	185957	87.000919556	0
10	186063	87.001042596	0
10	186171	87.001165636	0
10	186248	87.001200636	0
10	187330	88.000181316	0
10	187447	88.000304356	0
10	187564	88.000427396	0
10	187688	88.000550436	0
10	187815	88.000673476	0
10	187939	88.000796516	0
10	188066	88.000907316	0
10	189123	89.000181316	0
10	189240	89.000304356	0
10	189357	89.000427396	0
10	189481	89.000550436	0
10	189608	89.000673476	0
10	189732	89.000796516	0
10	189871	89.000919556	0
10	189944	89.000954556	0
10	191115	90.000181316	0
10	191233	90.000304356	0
10	191349	90.000427396	0
10	191473	90.000550436	0
10	191600	90.000673476	0
10	191724	90.000796516	0
10	191851	90.000919556	0
10	191965	90.001042596	0
10	192074	90.001165636	0
10	192176	90.001288676	0
10	192285	90.001411716	0
10	192392	90.001534756	0
10	192484	90.001645556	0
10	193260	91.000181316	0
10	193377	91.000304356	0
10	193494	91.000427396	0
10	193618	91.000550436	0
10	193745	91.000673476	0
10	193869	91.000796516	0
10	193996	91.000919556	0
10	194114	91.001042596	0
10	194216	91.001108116	0
10	195119	92.000181316	0
10	195236	92.000304356	0
10	195353	92.000427396	0
10	195477	92.000550436	0
10	195604	92.000673476	0
10	195728	92.000796516	0
10	195855	92.000919556	0
10	195973	92.001042596	0
10	196086	92.001165636	0
10	196209	92.001288676	0
10	196296	92.001352756	0
10	197226	93.000181316	0
10	197343	93.000304356	0
10	197460	93.000427396	0
10	197584	93.000550436	0
10	197711	93.000673476	0
10	197835	93.000796516	0
10	197962	93.000919556	0
10	198076	93.001034516	0
10	199127	94.000181316	0
10	199244	94.000304356	0
10	199361	94.000427396	0
10	199485	94.000550436	0
10	199612	94.000673476	0
10	199736	94.000796516	0
10	199867	94.000919556	0
10	199981	94.001042596	0
10	200098	94.001165636	0
10	200171	94.001200636	0
10	201151	95.000181316	0
10	201268	95.000304356	0
10	201385	95.000427396	0
10	201509	95.000550436	0
10	201636	95.000673476	0
10	201760	95.000796516	0
10	201887	95.000919556	0
10	202005	95.001042596	0
10	202114	95.001165636	0
10	202225	95.001288676	0
10	202325	95.001404996	0
10	203158	96.000181316	0
10	203275	96.000304356	0
10	203392	96.000427396	0
10	203516	96.000550436	0
10	203643	96.000673476	0
10	203767	96.000796516	0
10	203894	96.000919556	0
10	204012	96.001042596	0
10	204121	96.001165636	0
10	204236	96.001288676	0
10	204336	96.001411716	0
10	204451	96.001534756	0
10	204524	96.001569756	0
10	205358	97.000181316	0
10	205475	97.000304356	0
10	205592	97.000427396	0
10	205716	97.000550436	0
10	205843	97.000673476	0
10	205967	97.000796516	0
10	206094	97.000919556	0
10	206216	97.001042596	0
10	206294	97.001077596	0
10	207258	98.000181316	0
10	207375	98.000304356	0
10	207492	98.000427396	0
10	207616	98.000550436	0
10	207743	98.000673476	0
10	207867	98.000796516	0
10	207998	98.000919556	0
10	208075	98.000954556	0
10	209110	99.000181316	0
10	209227	99.000304356	0
10	209344	99.000427396	0
10	209468	99.000550436	0
10	209595	99.000673476	0
10	209719	99.000796516	0
10	209846	99.000919556	0
10	209968	99.001042596	0
10	210077	99.001165636	0
10	210188	99.001288676	0
10	210292	99.001411716	0
10	210399	99.001534756	0
10	210472	99.001569756	0

