version 3
run BurstyTraffic-0-20221214-13:28:01-99312
attr configname BurstyTraffic
attr datetime 20221214-13:28:01
attr datetimef 20221214-132801
attr experiment BurstyTraffic
attr inifile omnetpp.ini
attr iterationvars "$switchServiceTimeFactor=1, $controllerServiceTimeFactor=1"
attr iterationvarsd switchServiceTimeFactor=1/controllerServiceTimeFactor=1
attr iterationvarsf switchServiceTimeFactor=1,controllerServiceTimeFactor=1-
attr measurement "$switchServiceTimeFactor=1, $controllerServiceTimeFactor=1"
attr network Network
attr processid 99312
attr repetition 0
attr replication #0
attr resultdir results
attr runnumber 0
attr seedset 0
itervar controllerServiceTimeFactor 1
itervar switchServiceTimeFactor 1
config image-path ../../inet/images:../../openflow/images
config **.server*.app[0].typename UdpApp
config **.server*.app[0].io.localPort 1000
config **.server*.app[0].io.destAddress "\"client1\""
config **.server*.app[0].io.destPort 1000
config **.server*.app[0].source.typename BurstyPacketProducer
config **.server*.app[0].source.normalProducer.productionInterval 1s
config **.server*.app[0].source.normalProducer.packetLength 10000B
config **.server*.app[0].source.burstProducer.productionInterval 0.1s
config **.server*.app[0].source.burstProducer.packetLength 1000B
config **.server*.app[0].source.scheduler.waitIntervals "\"40 4\""
config **.server*.app[0].source.scheduler.transitionProbabilities "\"0 1 1 0\""
config **.open_flow_switch*.OF_Switch.connectAddress "\"open_flow_controller1\""
config **.open_flow_switch*.OF_Switch.connectAt uniform(0s,1s)
config **.open_flow_switch*.etherMAC[*].mac.promiscuous true
config **.OF_Switch.bufferCapacity 100
config **.OF_Switch.serviceTime "0.000035s * (1)"
config **.open_flow_controller*.serviceTime "0.000005556s *(1)"
config **.open_flow_controller*.numControllerApps 3
config **.open_flow_controller*.controllerApps[0].typename LLDPForwarding
config **.open_flow_controller*.controllerApps[0].flowModIdleTimeOut 5
config **.open_flow_controller*.controllerApps[0].ignoreArpRequests true
config **.open_flow_controller*.controllerApps[1].typename LLDPAgent
config **.open_flow_controller*.controllerApps[1].flowModIdleTimeOut 140
config **.open_flow_controller*.controllerApps[2].typename ARPResponder
config **.ppp[*].queue.packetCapacity 10
config **.open_flow_switch*.tcp.mss 800
config **.arp.cacheTimeout 60s
config *.configurator.config "xmldoc(\"ipv4config.xml\")"
config network Network
config output-vector-file results/omnetpp.ini/omnetpp.ini-0.vec
config output-scalar-file results/omnetpp.ini/omnetpp.ini-0.sca
config sim-time-limit 100s
config repeat 1
config seed-set 0
config **.rtt.result-recording-modes +vector,-stats
config **.queueSize.result-recording-modes +vector,+stats
config **.bufferSize.result-recording-modes +vector,+stats
config **.waitingTime.result-recording-modes +vector,+stats
config **.packets.result-recording-modes +count
config **.packetBytes.result-recording-modes +sum
config **.packets*.scalar-recording true
config **.packetBytes*.scalar-recording true
config **.droppedDataRate.result-recording-modes default,all
config **.numPacketIn*.scalar-recording true
config **.bufferSize*.vector-recording true
config **.queueSize*.vector-recording true
config **.waitingTime*.vector-recording true
config **.flowTable**.scalar-recording true
config **.pingApp[*].rtt*.vector-recording true
config **.controllerApps[*].*.scalar-recording true
config **.pingApp[*].numLost*.scalar-recording true
config **.pingApp[*].numOutOfOrderArrivals*.scalar-recording true
config **.vector-recording false
config **.scalar-recording false
config **.spanningTree.startNode 4
config **.highlightActivePorts true
config **.client*.numApps 1
config **.server*.numApps 1
config **.client*.app[0].typename UdpApp
config **.client*.app[0].io.localPort 1000
config **.client*.app[0].io.destAddress "\"server1\""
config **.client*.app[0].io.destPort 1000
config **.client*.app[0].source.productionInterval 1s
config **.client*.app[0].source.packetLength "intuniform(10000B, 20000B)"
config **.client*.app[0].source.packetData "intuniform(0, 1)"

par Network.client1.ethg$o[0].channel typename "\"newtcptest.simulations.Network.ethernetline\""
par Network.client1.ethg$o[0].channel disabled false
attr mutable ""
par Network.client1.ethg$o[0].channel delay 1e-06s
attr mutable ""
attr unit s
par Network.client1.ethg$o[0].channel datarate 1e+08bps
attr mutable ""
attr unit bps
par Network.client1.ethg$o[0].channel ber 0
attr mutable ""
par Network.client1.ethg$o[0].channel per 0
attr mutable ""
par Network.client1.ethg$o[0].channel displayAsTooltip false
par Network.client1.ethg$o[0].channel thruputDisplayFormat "\"u\""
scalar Network.client1.ethg$o[0].channel packets:count 1097
attr interpolationmode none
attr recordingmode count
attr source constant1(messageSent)
scalar Network.client1.ethg$o[0].channel packetBytes:sum 1598047
attr interpolationmode none
attr recordingmode sum
attr source packetBytes(messageSent)
attr unit B
par Network.open_flow_switch1.gateDataPlane$o[0].channel typename "\"newtcptest.simulations.Network.ethernetline\""
par Network.open_flow_switch1.gateDataPlane$o[0].channel disabled false
attr mutable ""
par Network.open_flow_switch1.gateDataPlane$o[0].channel delay 1e-06s
attr mutable ""
attr unit s
par Network.open_flow_switch1.gateDataPlane$o[0].channel datarate 1e+08bps
attr mutable ""
attr unit bps
par Network.open_flow_switch1.gateDataPlane$o[0].channel ber 0
attr mutable ""
par Network.open_flow_switch1.gateDataPlane$o[0].channel per 0
attr mutable ""
par Network.open_flow_switch1.gateDataPlane$o[0].channel displayAsTooltip false
par Network.open_flow_switch1.gateDataPlane$o[0].channel thruputDisplayFormat "\"u\""
scalar Network.open_flow_switch1.gateDataPlane$o[0].channel packets:count 726
attr interpolationmode none
attr recordingmode count
attr source constant1(messageSent)
scalar Network.open_flow_switch1.gateDataPlane$o[0].channel packetBytes:sum 1034824
attr interpolationmode none
attr recordingmode sum
attr source packetBytes(messageSent)
attr unit B
par Network.client3.ethg$o[0].channel typename "\"newtcptest.simulations.Network.ethernetline\""
par Network.client3.ethg$o[0].channel disabled false
attr mutable ""
par Network.client3.ethg$o[0].channel delay 1e-06s
attr mutable ""
attr unit s
par Network.client3.ethg$o[0].channel datarate 1e+08bps
attr mutable ""
attr unit bps
par Network.client3.ethg$o[0].channel ber 0
attr mutable ""
par Network.client3.ethg$o[0].channel per 0
attr mutable ""
par Network.client3.ethg$o[0].channel displayAsTooltip false
par Network.client3.ethg$o[0].channel thruputDisplayFormat "\"u\""
scalar Network.client3.ethg$o[0].channel packets:count 1075
attr interpolationmode none
attr recordingmode count
attr source constant1(messageSent)
scalar Network.client3.ethg$o[0].channel packetBytes:sum 1554492
attr interpolationmode none
attr recordingmode sum
attr source packetBytes(messageSent)
attr unit B
par Network.open_flow_switch1.gateDataPlane$o[1].channel typename "\"newtcptest.simulations.Network.ethernetline\""
par Network.open_flow_switch1.gateDataPlane$o[1].channel disabled false
attr mutable ""
par Network.open_flow_switch1.gateDataPlane$o[1].channel delay 1e-06s
attr mutable ""
attr unit s
par Network.open_flow_switch1.gateDataPlane$o[1].channel datarate 1e+08bps
attr mutable ""
attr unit bps
par Network.open_flow_switch1.gateDataPlane$o[1].channel ber 0
attr mutable ""
par Network.open_flow_switch1.gateDataPlane$o[1].channel per 0
attr mutable ""
par Network.open_flow_switch1.gateDataPlane$o[1].channel displayAsTooltip false
par Network.open_flow_switch1.gateDataPlane$o[1].channel thruputDisplayFormat "\"u\""
scalar Network.open_flow_switch1.gateDataPlane$o[1].channel packets:count 3
attr interpolationmode none
attr recordingmode count
attr source constant1(messageSent)
scalar Network.open_flow_switch1.gateDataPlane$o[1].channel packetBytes:sum 328
attr interpolationmode none
attr recordingmode sum
attr source packetBytes(messageSent)
attr unit B
par Network.client4.ethg$o[0].channel typename "\"newtcptest.simulations.Network.ethernetline\""
par Network.client4.ethg$o[0].channel disabled false
attr mutable ""
par Network.client4.ethg$o[0].channel delay 1e-06s
attr mutable ""
attr unit s
par Network.client4.ethg$o[0].channel datarate 1e+08bps
attr mutable ""
attr unit bps
par Network.client4.ethg$o[0].channel ber 0
attr mutable ""
par Network.client4.ethg$o[0].channel per 0
attr mutable ""
par Network.client4.ethg$o[0].channel displayAsTooltip false
par Network.client4.ethg$o[0].channel thruputDisplayFormat "\"u\""
scalar Network.client4.ethg$o[0].channel packets:count 1052
attr interpolationmode none
attr recordingmode count
attr source constant1(messageSent)
scalar Network.client4.ethg$o[0].channel packetBytes:sum 1529262
attr interpolationmode none
attr recordingmode sum
attr source packetBytes(messageSent)
attr unit B
par Network.open_flow_switch1.gateDataPlane$o[2].channel typename "\"newtcptest.simulations.Network.ethernetline\""
par Network.open_flow_switch1.gateDataPlane$o[2].channel disabled false
attr mutable ""
par Network.open_flow_switch1.gateDataPlane$o[2].channel delay 1e-06s
attr mutable ""
attr unit s
par Network.open_flow_switch1.gateDataPlane$o[2].channel datarate 1e+08bps
attr mutable ""
attr unit bps
par Network.open_flow_switch1.gateDataPlane$o[2].channel ber 0
attr mutable ""
par Network.open_flow_switch1.gateDataPlane$o[2].channel per 0
attr mutable ""
par Network.open_flow_switch1.gateDataPlane$o[2].channel displayAsTooltip false
par Network.open_flow_switch1.gateDataPlane$o[2].channel thruputDisplayFormat "\"u\""
scalar Network.open_flow_switch1.gateDataPlane$o[2].channel packets:count 3
attr interpolationmode none
attr recordingmode count
attr source constant1(messageSent)
scalar Network.open_flow_switch1.gateDataPlane$o[2].channel packetBytes:sum 328
attr interpolationmode none
attr recordingmode sum
attr source packetBytes(messageSent)
attr unit B
par Network.client5.ethg$o[0].channel typename "\"newtcptest.simulations.Network.ethernetline\""
par Network.client5.ethg$o[0].channel disabled false
attr mutable ""
par Network.client5.ethg$o[0].channel delay 1e-06s
attr mutable ""
attr unit s
par Network.client5.ethg$o[0].channel datarate 1e+08bps
attr mutable ""
attr unit bps
par Network.client5.ethg$o[0].channel ber 0
attr mutable ""
par Network.client5.ethg$o[0].channel per 0
attr mutable ""
par Network.client5.ethg$o[0].channel displayAsTooltip false
par Network.client5.ethg$o[0].channel thruputDisplayFormat "\"u\""
scalar Network.client5.ethg$o[0].channel packets:count 1009
attr interpolationmode none
attr recordingmode count
attr source constant1(messageSent)
scalar Network.client5.ethg$o[0].channel packetBytes:sum 1460911
attr interpolationmode none
attr recordingmode sum
attr source packetBytes(messageSent)
attr unit B
par Network.open_flow_switch1.gateDataPlane$o[3].channel typename "\"newtcptest.simulations.Network.ethernetline\""
par Network.open_flow_switch1.gateDataPlane$o[3].channel disabled false
attr mutable ""
par Network.open_flow_switch1.gateDataPlane$o[3].channel delay 1e-06s
attr mutable ""
attr unit s
par Network.open_flow_switch1.gateDataPlane$o[3].channel datarate 1e+08bps
attr mutable ""
attr unit bps
par Network.open_flow_switch1.gateDataPlane$o[3].channel ber 0
attr mutable ""
par Network.open_flow_switch1.gateDataPlane$o[3].channel per 0
attr mutable ""
par Network.open_flow_switch1.gateDataPlane$o[3].channel displayAsTooltip false
par Network.open_flow_switch1.gateDataPlane$o[3].channel thruputDisplayFormat "\"u\""
scalar Network.open_flow_switch1.gateDataPlane$o[3].channel packets:count 3
attr interpolationmode none
attr recordingmode count
attr source constant1(messageSent)
scalar Network.open_flow_switch1.gateDataPlane$o[3].channel packetBytes:sum 328
attr interpolationmode none
attr recordingmode sum
attr source packetBytes(messageSent)
attr unit B
par Network.client6.ethg$o[0].channel typename "\"newtcptest.simulations.Network.ethernetline\""
par Network.client6.ethg$o[0].channel disabled false
attr mutable ""
par Network.client6.ethg$o[0].channel delay 1e-06s
attr mutable ""
attr unit s
par Network.client6.ethg$o[0].channel datarate 1e+08bps
attr mutable ""
attr unit bps
par Network.client6.ethg$o[0].channel ber 0
attr mutable ""
par Network.client6.ethg$o[0].channel per 0
attr mutable ""
par Network.client6.ethg$o[0].channel displayAsTooltip false
par Network.client6.ethg$o[0].channel thruputDisplayFormat "\"u\""
scalar Network.client6.ethg$o[0].channel packets:count 1033
attr interpolationmode none
attr recordingmode count
attr source constant1(messageSent)
scalar Network.client6.ethg$o[0].channel packetBytes:sum 1494931
attr interpolationmode none
attr recordingmode sum
attr source packetBytes(messageSent)
attr unit B
par Network.open_flow_switch1.gateDataPlane$o[4].channel typename "\"newtcptest.simulations.Network.ethernetline\""
par Network.open_flow_switch1.gateDataPlane$o[4].channel disabled false
attr mutable ""
par Network.open_flow_switch1.gateDataPlane$o[4].channel delay 1e-06s
attr mutable ""
attr unit s
par Network.open_flow_switch1.gateDataPlane$o[4].channel datarate 1e+08bps
attr mutable ""
attr unit bps
par Network.open_flow_switch1.gateDataPlane$o[4].channel ber 0
attr mutable ""
par Network.open_flow_switch1.gateDataPlane$o[4].channel per 0
attr mutable ""
par Network.open_flow_switch1.gateDataPlane$o[4].channel displayAsTooltip false
par Network.open_flow_switch1.gateDataPlane$o[4].channel thruputDisplayFormat "\"u\""
scalar Network.open_flow_switch1.gateDataPlane$o[4].channel packets:count 3
attr interpolationmode none
attr recordingmode count
attr source constant1(messageSent)
scalar Network.open_flow_switch1.gateDataPlane$o[4].channel packetBytes:sum 216
attr interpolationmode none
attr recordingmode sum
attr source packetBytes(messageSent)
attr unit B
par Network.client2.ethg$o[0].channel typename "\"newtcptest.simulations.Network.ethernetline\""
par Network.client2.ethg$o[0].channel disabled false
attr mutable ""
par Network.client2.ethg$o[0].channel delay 1e-06s
attr mutable ""
attr unit s
par Network.client2.ethg$o[0].channel datarate 1e+08bps
attr mutable ""
attr unit bps
par Network.client2.ethg$o[0].channel ber 0
attr mutable ""
par Network.client2.ethg$o[0].channel per 0
attr mutable ""
par Network.client2.ethg$o[0].channel displayAsTooltip false
par Network.client2.ethg$o[0].channel thruputDisplayFormat "\"u\""
scalar Network.client2.ethg$o[0].channel packets:count 1079
attr interpolationmode none
attr recordingmode count
attr source constant1(messageSent)
scalar Network.client2.ethg$o[0].channel packetBytes:sum 1566231
attr interpolationmode none
attr recordingmode sum
attr source packetBytes(messageSent)
attr unit B
par Network.open_flow_switch2.gateDataPlane$o[0].channel typename "\"newtcptest.simulations.Network.ethernetline\""
par Network.open_flow_switch2.gateDataPlane$o[0].channel disabled false
attr mutable ""
par Network.open_flow_switch2.gateDataPlane$o[0].channel delay 1e-06s
attr mutable ""
attr unit s
par Network.open_flow_switch2.gateDataPlane$o[0].channel datarate 1e+08bps
attr mutable ""
attr unit bps
par Network.open_flow_switch2.gateDataPlane$o[0].channel ber 0
attr mutable ""
par Network.open_flow_switch2.gateDataPlane$o[0].channel per 0
attr mutable ""
par Network.open_flow_switch2.gateDataPlane$o[0].channel displayAsTooltip false
par Network.open_flow_switch2.gateDataPlane$o[0].channel thruputDisplayFormat "\"u\""
scalar Network.open_flow_switch2.gateDataPlane$o[0].channel packets:count 2
attr interpolationmode none
attr recordingmode count
attr source constant1(messageSent)
scalar Network.open_flow_switch2.gateDataPlane$o[0].channel packetBytes:sum 144
attr interpolationmode none
attr recordingmode sum
attr source packetBytes(messageSent)
attr unit B
par Network.server1.ethg$o[0].channel typename "\"newtcptest.simulations.Network.ethernetline\""
par Network.server1.ethg$o[0].channel disabled false
attr mutable ""
par Network.server1.ethg$o[0].channel delay 1e-06s
attr mutable ""
attr unit s
par Network.server1.ethg$o[0].channel datarate 1e+08bps
attr mutable ""
attr unit bps
par Network.server1.ethg$o[0].channel ber 0
attr mutable ""
par Network.server1.ethg$o[0].channel per 0
attr mutable ""
par Network.server1.ethg$o[0].channel displayAsTooltip false
par Network.server1.ethg$o[0].channel thruputDisplayFormat "\"u\""
scalar Network.server1.ethg$o[0].channel packets:count 1127
attr interpolationmode none
attr recordingmode count
attr source constant1(messageSent)
scalar Network.server1.ethg$o[0].channel packetBytes:sum 1069060
attr interpolationmode none
attr recordingmode sum
attr source packetBytes(messageSent)
attr unit B
par Network.open_flow_switch3.gateDataPlane$o[0].channel typename "\"newtcptest.simulations.Network.ethernetline\""
par Network.open_flow_switch3.gateDataPlane$o[0].channel disabled false
attr mutable ""
par Network.open_flow_switch3.gateDataPlane$o[0].channel delay 1e-06s
attr mutable ""
attr unit s
par Network.open_flow_switch3.gateDataPlane$o[0].channel datarate 1e+08bps
attr mutable ""
attr unit bps
par Network.open_flow_switch3.gateDataPlane$o[0].channel ber 0
attr mutable ""
par Network.open_flow_switch3.gateDataPlane$o[0].channel per 0
attr mutable ""
par Network.open_flow_switch3.gateDataPlane$o[0].channel displayAsTooltip false
par Network.open_flow_switch3.gateDataPlane$o[0].channel thruputDisplayFormat "\"u\""
scalar Network.open_flow_switch3.gateDataPlane$o[0].channel packets:count 5637
attr interpolationmode none
attr recordingmode count
attr source constant1(messageSent)
scalar Network.open_flow_switch3.gateDataPlane$o[0].channel packetBytes:sum 7660995
attr interpolationmode none
attr recordingmode sum
attr source packetBytes(messageSent)
attr unit B
par Network.etherSwitch.ethg$o[0].channel typename "\"newtcptest.simulations.Network.ethernetline\""
par Network.etherSwitch.ethg$o[0].channel disabled false
attr mutable ""
par Network.etherSwitch.ethg$o[0].channel delay 1e-06s
attr mutable ""
attr unit s
par Network.etherSwitch.ethg$o[0].channel datarate 1e+08bps
attr mutable ""
attr unit bps
par Network.etherSwitch.ethg$o[0].channel ber 0
attr mutable ""
par Network.etherSwitch.ethg$o[0].channel per 0
attr mutable ""
par Network.etherSwitch.ethg$o[0].channel displayAsTooltip false
par Network.etherSwitch.ethg$o[0].channel thruputDisplayFormat "\"u\""
scalar Network.etherSwitch.ethg$o[0].channel packets:count 72
attr interpolationmode none
attr recordingmode count
attr source constant1(messageSent)
scalar Network.etherSwitch.ethg$o[0].channel packetBytes:sum 9382
attr interpolationmode none
attr recordingmode sum
attr source packetBytes(messageSent)
attr unit B
par Network.open_flow_switch1.gateControlPlane$o[0].channel typename "\"newtcptest.simulations.Network.ethernetline\""
par Network.open_flow_switch1.gateControlPlane$o[0].channel disabled false
attr mutable ""
par Network.open_flow_switch1.gateControlPlane$o[0].channel delay 1e-06s
attr mutable ""
attr unit s
par Network.open_flow_switch1.gateControlPlane$o[0].channel datarate 1e+08bps
attr mutable ""
attr unit bps
par Network.open_flow_switch1.gateControlPlane$o[0].channel ber 0
attr mutable ""
par Network.open_flow_switch1.gateControlPlane$o[0].channel per 0
attr mutable ""
par Network.open_flow_switch1.gateControlPlane$o[0].channel displayAsTooltip false
par Network.open_flow_switch1.gateControlPlane$o[0].channel thruputDisplayFormat "\"u\""
scalar Network.open_flow_switch1.gateControlPlane$o[0].channel packets:count 70
attr interpolationmode none
attr recordingmode count
attr source constant1(messageSent)
scalar Network.open_flow_switch1.gateControlPlane$o[0].channel packetBytes:sum 5640
attr interpolationmode none
attr recordingmode sum
attr source packetBytes(messageSent)
attr unit B
par Network.etherSwitch1.ethg$o[0].channel typename "\"newtcptest.simulations.Network.ethernetline\""
par Network.etherSwitch1.ethg$o[0].channel disabled false
attr mutable ""
par Network.etherSwitch1.ethg$o[0].channel delay 1e-06s
attr mutable ""
attr unit s
par Network.etherSwitch1.ethg$o[0].channel datarate 1e+08bps
attr mutable ""
attr unit bps
par Network.etherSwitch1.ethg$o[0].channel ber 0
attr mutable ""
par Network.etherSwitch1.ethg$o[0].channel per 0
attr mutable ""
par Network.etherSwitch1.ethg$o[0].channel displayAsTooltip false
par Network.etherSwitch1.ethg$o[0].channel thruputDisplayFormat "\"u\""
scalar Network.etherSwitch1.ethg$o[0].channel packets:count 70
attr interpolationmode none
attr recordingmode count
attr source constant1(messageSent)
scalar Network.etherSwitch1.ethg$o[0].channel packetBytes:sum 7500
attr interpolationmode none
attr recordingmode sum
attr source packetBytes(messageSent)
attr unit B
par Network.open_flow_switch3.gateControlPlane$o[0].channel typename "\"newtcptest.simulations.Network.ethernetline\""
par Network.open_flow_switch3.gateControlPlane$o[0].channel disabled false
attr mutable ""
par Network.open_flow_switch3.gateControlPlane$o[0].channel delay 1e-06s
attr mutable ""
attr unit s
par Network.open_flow_switch3.gateControlPlane$o[0].channel datarate 1e+08bps
attr mutable ""
attr unit bps
par Network.open_flow_switch3.gateControlPlane$o[0].channel ber 0
attr mutable ""
par Network.open_flow_switch3.gateControlPlane$o[0].channel per 0
attr mutable ""
par Network.open_flow_switch3.gateControlPlane$o[0].channel displayAsTooltip false
par Network.open_flow_switch3.gateControlPlane$o[0].channel thruputDisplayFormat "\"u\""
scalar Network.open_flow_switch3.gateControlPlane$o[0].channel packets:count 70
attr interpolationmode none
attr recordingmode count
attr source constant1(messageSent)
scalar Network.open_flow_switch3.gateControlPlane$o[0].channel packetBytes:sum 5562
attr interpolationmode none
attr recordingmode sum
attr source packetBytes(messageSent)
attr unit B
par Network.etherSwitch.ethg$o[1].channel typename "\"newtcptest.simulations.Network.ethernetline\""
par Network.etherSwitch.ethg$o[1].channel disabled false
attr mutable ""
par Network.etherSwitch.ethg$o[1].channel delay 1e-06s
attr mutable ""
attr unit s
par Network.etherSwitch.ethg$o[1].channel datarate 1e+08bps
attr mutable ""
attr unit bps
par Network.etherSwitch.ethg$o[1].channel ber 0
attr mutable ""
par Network.etherSwitch.ethg$o[1].channel per 0
attr mutable ""
par Network.etherSwitch.ethg$o[1].channel displayAsTooltip false
par Network.etherSwitch.ethg$o[1].channel thruputDisplayFormat "\"u\""
scalar Network.etherSwitch.ethg$o[1].channel packets:count 2172
attr interpolationmode none
attr recordingmode count
attr source constant1(messageSent)
scalar Network.etherSwitch.ethg$o[1].channel packetBytes:sum 176744
attr interpolationmode none
attr recordingmode sum
attr source packetBytes(messageSent)
attr unit B
par Network.open_flow_switch2.gateControlPlane$o[0].channel typename "\"newtcptest.simulations.Network.ethernetline\""
par Network.open_flow_switch2.gateControlPlane$o[0].channel disabled false
attr mutable ""
par Network.open_flow_switch2.gateControlPlane$o[0].channel delay 1e-06s
attr mutable ""
attr unit s
par Network.open_flow_switch2.gateControlPlane$o[0].channel datarate 1e+08bps
attr mutable ""
attr unit bps
par Network.open_flow_switch2.gateControlPlane$o[0].channel ber 0
attr mutable ""
par Network.open_flow_switch2.gateControlPlane$o[0].channel per 0
attr mutable ""
par Network.open_flow_switch2.gateControlPlane$o[0].channel displayAsTooltip false
par Network.open_flow_switch2.gateControlPlane$o[0].channel thruputDisplayFormat "\"u\""
scalar Network.open_flow_switch2.gateControlPlane$o[0].channel packets:count 2170
attr interpolationmode none
attr recordingmode count
attr source constant1(messageSent)
scalar Network.open_flow_switch2.gateControlPlane$o[0].channel packetBytes:sum 184270
attr interpolationmode none
attr recordingmode sum
attr source packetBytes(messageSent)
attr unit B
par Network.etherSwitch.ethg$o[2].channel typename "\"newtcptest.simulations.Network.ethernetline\""
par Network.etherSwitch.ethg$o[2].channel disabled false
attr mutable ""
par Network.etherSwitch.ethg$o[2].channel delay 1e-06s
attr mutable ""
attr unit s
par Network.etherSwitch.ethg$o[2].channel datarate 1e+08bps
attr mutable ""
attr unit bps
par Network.etherSwitch.ethg$o[2].channel ber 0
attr mutable ""
par Network.etherSwitch.ethg$o[2].channel per 0
attr mutable ""
par Network.etherSwitch.ethg$o[2].channel displayAsTooltip false
par Network.etherSwitch.ethg$o[2].channel thruputDisplayFormat "\"u\""
scalar Network.etherSwitch.ethg$o[2].channel packets:count 2240
attr interpolationmode none
attr recordingmode count
attr source constant1(messageSent)
scalar Network.etherSwitch.ethg$o[2].channel packetBytes:sum 189910
attr interpolationmode none
attr recordingmode sum
attr source packetBytes(messageSent)
attr unit B
par Network.open_flow_controller1.ethg$o[0].channel typename "\"newtcptest.simulations.Network.ethernetline\""
par Network.open_flow_controller1.ethg$o[0].channel disabled false
attr mutable ""
par Network.open_flow_controller1.ethg$o[0].channel delay 1e-06s
attr mutable ""
attr unit s
par Network.open_flow_controller1.ethg$o[0].channel datarate 1e+08bps
attr mutable ""
attr unit bps
par Network.open_flow_controller1.ethg$o[0].channel ber 0
attr mutable ""
par Network.open_flow_controller1.ethg$o[0].channel per 0
attr mutable ""
par Network.open_flow_controller1.ethg$o[0].channel displayAsTooltip false
par Network.open_flow_controller1.ethg$o[0].channel thruputDisplayFormat "\"u\""
scalar Network.open_flow_controller1.ethg$o[0].channel packets:count 2240
attr interpolationmode none
attr recordingmode count
attr source constant1(messageSent)
scalar Network.open_flow_controller1.ethg$o[0].channel packetBytes:sum 185838
attr interpolationmode none
attr recordingmode sum
attr source packetBytes(messageSent)
attr unit B
par Network.etherSwitch1.ethg$o[1].channel typename "\"newtcptest.simulations.Network.ethernetline\""
par Network.etherSwitch1.ethg$o[1].channel disabled false
attr mutable ""
par Network.etherSwitch1.ethg$o[1].channel delay 1e-06s
attr mutable ""
attr unit s
par Network.etherSwitch1.ethg$o[1].channel datarate 1e+08bps
attr mutable ""
attr unit bps
par Network.etherSwitch1.ethg$o[1].channel ber 0
attr mutable ""
par Network.etherSwitch1.ethg$o[1].channel per 0
attr mutable ""
par Network.etherSwitch1.ethg$o[1].channel displayAsTooltip false
par Network.etherSwitch1.ethg$o[1].channel thruputDisplayFormat "\"u\""
scalar Network.etherSwitch1.ethg$o[1].channel packets:count 70
attr interpolationmode none
attr recordingmode count
attr source constant1(messageSent)
scalar Network.etherSwitch1.ethg$o[1].channel packetBytes:sum 5562
attr interpolationmode none
attr recordingmode sum
attr source packetBytes(messageSent)
attr unit B
par Network.open_flow_controller1.ethg$o[1].channel typename "\"newtcptest.simulations.Network.ethernetline\""
par Network.open_flow_controller1.ethg$o[1].channel disabled false
attr mutable ""
par Network.open_flow_controller1.ethg$o[1].channel delay 1e-06s
attr mutable ""
attr unit s
par Network.open_flow_controller1.ethg$o[1].channel datarate 1e+08bps
attr mutable ""
attr unit bps
par Network.open_flow_controller1.ethg$o[1].channel ber 0
attr mutable ""
par Network.open_flow_controller1.ethg$o[1].channel per 0
attr mutable ""
par Network.open_flow_controller1.ethg$o[1].channel displayAsTooltip false
par Network.open_flow_controller1.ethg$o[1].channel thruputDisplayFormat "\"u\""
scalar Network.open_flow_controller1.ethg$o[1].channel packets:count 70
attr interpolationmode none
attr recordingmode count
attr source constant1(messageSent)
scalar Network.open_flow_controller1.ethg$o[1].channel packetBytes:sum 7500
attr interpolationmode none
attr recordingmode sum
attr source packetBytes(messageSent)
attr unit B
par Network.open_flow_switch1.gateDataPlane$o[5].channel typename "\"newtcptest.simulations.Network.ethernetline\""
par Network.open_flow_switch1.gateDataPlane$o[5].channel disabled false
attr mutable ""
par Network.open_flow_switch1.gateDataPlane$o[5].channel delay 1e-06s
attr mutable ""
attr unit s
par Network.open_flow_switch1.gateDataPlane$o[5].channel datarate 1e+08bps
attr mutable ""
attr unit bps
par Network.open_flow_switch1.gateDataPlane$o[5].channel ber 0
attr mutable ""
par Network.open_flow_switch1.gateDataPlane$o[5].channel per 0
attr mutable ""
par Network.open_flow_switch1.gateDataPlane$o[5].channel displayAsTooltip false
par Network.open_flow_switch1.gateDataPlane$o[5].channel thruputDisplayFormat "\"u\""
scalar Network.open_flow_switch1.gateDataPlane$o[5].channel packets:count 0
attr interpolationmode none
attr recordingmode count
attr source constant1(messageSent)
scalar Network.open_flow_switch1.gateDataPlane$o[5].channel packetBytes:sum 0
attr interpolationmode none
attr recordingmode sum
attr source packetBytes(messageSent)
attr unit B
par Network.open_flow_switch2.gateDataPlane$o[1].channel typename "\"newtcptest.simulations.Network.ethernetline\""
par Network.open_flow_switch2.gateDataPlane$o[1].channel disabled false
attr mutable ""
par Network.open_flow_switch2.gateDataPlane$o[1].channel delay 1e-06s
attr mutable ""
attr unit s
par Network.open_flow_switch2.gateDataPlane$o[1].channel datarate 1e+08bps
attr mutable ""
attr unit bps
par Network.open_flow_switch2.gateDataPlane$o[1].channel ber 0
attr mutable ""
par Network.open_flow_switch2.gateDataPlane$o[1].channel per 0
attr mutable ""
par Network.open_flow_switch2.gateDataPlane$o[1].channel displayAsTooltip false
par Network.open_flow_switch2.gateDataPlane$o[1].channel thruputDisplayFormat "\"u\""
scalar Network.open_flow_switch2.gateDataPlane$o[1].channel packets:count 0
attr interpolationmode none
attr recordingmode count
attr source constant1(messageSent)
scalar Network.open_flow_switch2.gateDataPlane$o[1].channel packetBytes:sum 0
attr interpolationmode none
attr recordingmode sum
attr source packetBytes(messageSent)
attr unit B
par Network.open_flow_switch2.gateDataPlane$o[2].channel typename "\"newtcptest.simulations.Network.ethernetline\""
par Network.open_flow_switch2.gateDataPlane$o[2].channel disabled false
attr mutable ""
par Network.open_flow_switch2.gateDataPlane$o[2].channel delay 1e-06s
attr mutable ""
attr unit s
par Network.open_flow_switch2.gateDataPlane$o[2].channel datarate 1e+08bps
attr mutable ""
attr unit bps
par Network.open_flow_switch2.gateDataPlane$o[2].channel ber 0
attr mutable ""
par Network.open_flow_switch2.gateDataPlane$o[2].channel per 0
attr mutable ""
par Network.open_flow_switch2.gateDataPlane$o[2].channel displayAsTooltip false
par Network.open_flow_switch2.gateDataPlane$o[2].channel thruputDisplayFormat "\"u\""
scalar Network.open_flow_switch2.gateDataPlane$o[2].channel packets:count 0
attr interpolationmode none
attr recordingmode count
attr source constant1(messageSent)
scalar Network.open_flow_switch2.gateDataPlane$o[2].channel packetBytes:sum 0
attr interpolationmode none
attr recordingmode sum
attr source packetBytes(messageSent)
attr unit B
par Network.open_flow_switch3.gateDataPlane$o[1].channel typename "\"newtcptest.simulations.Network.ethernetline\""
par Network.open_flow_switch3.gateDataPlane$o[1].channel disabled false
attr mutable ""
par Network.open_flow_switch3.gateDataPlane$o[1].channel delay 1e-06s
attr mutable ""
attr unit s
par Network.open_flow_switch3.gateDataPlane$o[1].channel datarate 1e+08bps
attr mutable ""
attr unit bps
par Network.open_flow_switch3.gateDataPlane$o[1].channel ber 0
attr mutable ""
par Network.open_flow_switch3.gateDataPlane$o[1].channel per 0
attr mutable ""
par Network.open_flow_switch3.gateDataPlane$o[1].channel displayAsTooltip false
par Network.open_flow_switch3.gateDataPlane$o[1].channel thruputDisplayFormat "\"u\""
scalar Network.open_flow_switch3.gateDataPlane$o[1].channel packets:count 0
attr interpolationmode none
attr recordingmode count
attr source constant1(messageSent)
scalar Network.open_flow_switch3.gateDataPlane$o[1].channel packetBytes:sum 0
attr interpolationmode none
attr recordingmode sum
attr source packetBytes(messageSent)
attr unit B
par Network.open_flow_switch3.gateDataPlane$o[2].channel typename "\"newtcptest.simulations.Network.ethernetline\""
par Network.open_flow_switch3.gateDataPlane$o[2].channel disabled false
attr mutable ""
par Network.open_flow_switch3.gateDataPlane$o[2].channel delay 1e-06s
attr mutable ""
attr unit s
par Network.open_flow_switch3.gateDataPlane$o[2].channel datarate 1e+08bps
attr mutable ""
attr unit bps
par Network.open_flow_switch3.gateDataPlane$o[2].channel ber 0
attr mutable ""
par Network.open_flow_switch3.gateDataPlane$o[2].channel per 0
attr mutable ""
par Network.open_flow_switch3.gateDataPlane$o[2].channel displayAsTooltip false
par Network.open_flow_switch3.gateDataPlane$o[2].channel thruputDisplayFormat "\"u\""
scalar Network.open_flow_switch3.gateDataPlane$o[2].channel packets:count 725
attr interpolationmode none
attr recordingmode count
attr source constant1(messageSent)
scalar Network.open_flow_switch3.gateDataPlane$o[2].channel packetBytes:sum 1034752
attr interpolationmode none
attr recordingmode sum
attr source packetBytes(messageSent)
attr unit B
par Network.open_flow_switch1.gateDataPlane$o[6].channel typename "\"newtcptest.simulations.Network.ethernetline\""
par Network.open_flow_switch1.gateDataPlane$o[6].channel disabled false
attr mutable ""
par Network.open_flow_switch1.gateDataPlane$o[6].channel delay 1e-06s
attr mutable ""
attr unit s
par Network.open_flow_switch1.gateDataPlane$o[6].channel datarate 1e+08bps
attr mutable ""
attr unit bps
par Network.open_flow_switch1.gateDataPlane$o[6].channel ber 0
attr mutable ""
par Network.open_flow_switch1.gateDataPlane$o[6].channel per 0
attr mutable ""
par Network.open_flow_switch1.gateDataPlane$o[6].channel displayAsTooltip false
par Network.open_flow_switch1.gateDataPlane$o[6].channel thruputDisplayFormat "\"u\""
scalar Network.open_flow_switch1.gateDataPlane$o[6].channel packets:count 5237
attr interpolationmode none
attr recordingmode count
attr source constant1(messageSent)
scalar Network.open_flow_switch1.gateDataPlane$o[6].channel packetBytes:sum 7628285
attr interpolationmode none
attr recordingmode sum
attr source packetBytes(messageSent)
attr unit B
par Network.spanningTree typename "\"openflow.utility.StaticSpanningTree\""
par Network.spanningTree NodeType "\"openflow.openflow.switch.Open_Flow_Switch\""
par Network.spanningTree startNode 4
par Network.controllerInvolvementFilter typename "\"openflow.utility.ControllerInvolvementFilter\""
par Network.client1.ethg$i[0].channel typename "\"ned.IdealChannel\""
par Network.client1.eth[0].phys$o.channel typename "\"ned.IdealChannel\""
par Network.client1.interfaceTable typename "\"inet.networklayer.common.InterfaceTable\""
par Network.client1.interfaceTable displayAddresses false
par Network.client1.cb typename "\"inet.common.MessageDispatcher\""
par Network.client1.cb displayStringTextFormat "\"processed %p pk (%l)\""
par Network.client1.cb forwardServiceRegistration true
par Network.client1.cb forwardProtocolRegistration true
par Network.client1.bl typename "\"inet.common.MessageDispatcher\""
par Network.client1.bl displayStringTextFormat "\"processed %p pk (%l)\""
par Network.client1.bl forwardServiceRegistration true
par Network.client1.bl forwardProtocolRegistration true
par Network.client1.ethernet typename "\"inet.linklayer.ethernet.basic.EthernetEncapsulation\""
par Network.client1.ethernet registerProtocol true
par Network.client1.ethernet interfaceTableModule "\"Network.client1.interfaceTable\""
par Network.client1.ethernet fcsMode "\"declared\""
attr enum declared,computed
par Network.client1.ethernet stopOperationExtraTime -1s
attr unit s
par Network.client1.ethernet stopOperationTimeout 2s
attr unit s
par Network.client1.li typename "\"inet.common.MessageDispatcher\""
par Network.client1.li displayStringTextFormat "\"processed %p pk (%l)\""
par Network.client1.li forwardServiceRegistration true
par Network.client1.li forwardProtocolRegistration true
par Network.client1.lo[0].upperLayerIn.channel typename "\"ned.IdealChannel\""
par Network.client1.lo[0].lo.upperLayerOut.channel typename "\"ned.IdealChannel\""
par Network.client1.lo[0].lo typename "\"inet.linklayer.loopback.Loopback\""
par Network.client1.lo[0].lo interfaceTableModule "\"Network.client1.interfaceTable\""
par Network.client1.lo[0].lo mtu 4470B
attr unit B
par Network.client1.lo[0] typename "\"inet.linklayer.loopback.LoopbackInterface\""
par Network.client1.lo[0] displayStringTextFormat "\"%a (%i)\\n%m\""
par Network.client1.lo[0] recordPcap false
par Network.client1.lo[0] numPcapRecorders 0
par Network.client1.lo[0] interfaceTableModule "\"Network.client1.interfaceTable\""
par Network.client1.eth[0].mac.phys$o.channel typename "\"ned.IdealChannel\""
par Network.client1.eth[0].phys$i.channel typename "\"ned.IdealChannel\""
par Network.client1.eth[0].upperLayerIn.channel typename "\"ned.IdealChannel\""
par Network.client1.eth[0].mac.upperLayerOut.channel typename "\"ned.IdealChannel\""
par Network.client1.eth[0].queue typename "\"inet.linklayer.ethernet.common.EthernetQueue\""
par Network.client1.eth[0].queue displayStringTextFormat "\"contains %p pk (%l) pushed %u\\npulled %o removed %r dropped %d\""
par Network.client1.eth[0].queue packetCapacity 1000
par Network.client1.eth[0].queue dataCapacity -1b
attr unit b
par Network.client1.eth[0].queue dropperClass "\"inet::queueing::PacketAtCollectionEndDropper\""
par Network.client1.eth[0].queue comparatorClass "\"inet::EthernetFrameTypeComparator\""
par Network.client1.eth[0].queue bufferModule "\"\""
par Network.client1.eth[0].mac.phys$i.channel typename "\"ned.IdealChannel\""
par Network.client1.eth[0].mac typename "\"inet.linklayer.ethernet.basic.EthernetMac\""
par Network.client1.eth[0].mac interfaceTableModule "\"Network.client1.interfaceTable\""
par Network.client1.eth[0].mac displayStringTextFormat "\"rate: %b\\nsent: %s, rcvd: %r\\nqueue: %q, drop: %d\""
par Network.client1.eth[0].mac sendRawBytes false
par Network.client1.eth[0].mac promiscuous false
par Network.client1.eth[0].mac duplexMode true
par Network.client1.eth[0].mac mtu 1500B
attr unit B
par Network.client1.eth[0].mac fcsMode "\"declared\""
attr enum declared,computed
par Network.client1.eth[0].mac stopOperationExtraTime -1s
attr unit s
par Network.client1.eth[0].mac stopOperationTimeout 2s
attr unit s
par Network.client1.eth[0] typename "\"inet.linklayer.ethernet.EthernetInterface\""
par Network.client1.eth[0] displayStringTextFormat "\"%a (%i)\\n%m\""
par Network.client1.eth[0] recordPcap false
par Network.client1.eth[0] numPcapRecorders 0
par Network.client1.eth[0] interfaceTableModule "\"Network.client1.interfaceTable\""
par Network.client1.eth[0] protocol "\"ethernetmac\""
par Network.client1.eth[0] address "\"0A-AA-00-00-00-01\""
attr mutable ""
par Network.client1.eth[0] duplexMode true
par Network.client1.eth[0] csmacdSupport false
par Network.client1.eth[0] bitrate 0bps
attr unit bps
par Network.client1.eth[0] fcsMode "\"declared\""
attr enum declared,computed
par Network.client1.ipv4.transportIn.channel typename "\"ned.IdealChannel\""
par Network.client1.ipv4.up.out[0].channel typename "\"ned.IdealChannel\""
par Network.client1.ipv4.lp.out[2].channel typename "\"ned.IdealChannel\""
par Network.client1.ipv4.ifIn.channel typename "\"ned.IdealChannel\""
par Network.client1.ipv4.configurator typename "\"inet.networklayer.configurator.ipv4.Ipv4NodeConfigurator\""
par Network.client1.ipv4.configurator interfaceTableModule "\"Network.client1.interfaceTable\""
par Network.client1.ipv4.configurator routingTableModule "\"Network.client1.ipv4.routingTable\""
par Network.client1.ipv4.configurator networkConfiguratorModule "\"configurator\""
par Network.client1.ipv4.configurator configureRoutingTable true
par Network.client1.ipv4.routingTable typename "\"inet.networklayer.ipv4.Ipv4RoutingTable\""
par Network.client1.ipv4.routingTable interfaceTableModule "\"Network.client1.interfaceTable\""
par Network.client1.ipv4.routingTable routerId "\"auto\""
par Network.client1.ipv4.routingTable netmaskRoutes "\"*\""
par Network.client1.ipv4.routingTable forwarding false
par Network.client1.ipv4.routingTable multicastForwarding false
par Network.client1.ipv4.routingTable useAdminDist false
par Network.client1.ipv4.routingTable routingFile "\"\""
par Network.client1.ipv4.natTable typename "\"inet.networklayer.ipv4.Ipv4NatTable\""
par Network.client1.ipv4.natTable networkProtocolModule "\"^.ip\""
par Network.client1.ipv4.natTable config "<config/> at content:1"
par Network.client1.ipv4.up typename "\"inet.common.MessageDispatcher\""
par Network.client1.ipv4.up displayStringTextFormat "\"processed %p pk (%l)\""
par Network.client1.ipv4.up forwardServiceRegistration true
par Network.client1.ipv4.up forwardProtocolRegistration true
par Network.client1.ipv4.igmp typename "\"inet.networklayer.ipv4.Igmpv2\""
par Network.client1.ipv4.igmp interfaceTableModule "\"Network.client1.interfaceTable\""
par Network.client1.ipv4.igmp routingTableModule "\"Network.client1.ipv4.routingTable\""
par Network.client1.ipv4.igmp crcMode "\"declared\""
attr enum declared,computed
par Network.client1.ipv4.igmp enabled true
par Network.client1.ipv4.igmp robustnessVariable 2
par Network.client1.ipv4.igmp queryInterval 125s
attr unit s
par Network.client1.ipv4.igmp queryResponseInterval 10s
attr unit s
par Network.client1.ipv4.igmp groupMembershipInterval 260s
attr unit s
par Network.client1.ipv4.igmp otherQuerierPresentInterval 255s
attr unit s
par Network.client1.ipv4.igmp startupQueryInterval 31.25s
attr unit s
par Network.client1.ipv4.igmp startupQueryCount 2
par Network.client1.ipv4.igmp lastMemberQueryInterval 1s
attr unit s
par Network.client1.ipv4.igmp lastMemberQueryCount 2
par Network.client1.ipv4.igmp unsolicitedReportInterval 10s
attr unit s
par Network.client1.ipv4.icmp typename "\"inet.networklayer.ipv4.Icmp\""
par Network.client1.ipv4.icmp interfaceTableModule "\"Network.client1.interfaceTable\""
par Network.client1.ipv4.icmp routingTableModule "\"Network.client1.ipv4.routingTable\""
par Network.client1.ipv4.icmp crcMode "\"declared\""
attr enum declared,computed
attr mutable ""
par Network.client1.ipv4.icmp quoteLength 8B
attr mutable ""
attr unit B
par Network.client1.ipv4.mp typename "\"inet.common.MessageDispatcher\""
par Network.client1.ipv4.mp displayStringTextFormat "\"processed %p pk (%l)\""
par Network.client1.ipv4.mp forwardServiceRegistration true
par Network.client1.ipv4.mp forwardProtocolRegistration true
par Network.client1.ipv4.ip typename "\"inet.networklayer.ipv4.Ipv4\""
par Network.client1.ipv4.ip interfaceTableModule "\"Network.client1.interfaceTable\""
par Network.client1.ipv4.ip routingTableModule "\"Network.client1.ipv4.routingTable\""
par Network.client1.ipv4.ip arpModule "\"Network.client1.ipv4.arp\""
par Network.client1.ipv4.ip icmpModule "\"Network.client1.ipv4.icmp\""
par Network.client1.ipv4.ip crcMode "\"declared\""
attr enum declared,computed
par Network.client1.ipv4.ip timeToLive 32
par Network.client1.ipv4.ip multicastTimeToLive 32
par Network.client1.ipv4.ip fragmentTimeout 60s
attr unit s
par Network.client1.ipv4.ip limitedBroadcast false
par Network.client1.ipv4.ip directBroadcastInterfaces "\"\""
par Network.client1.ipv4.arp typename "\"inet.networklayer.arp.ipv4.Arp\""
par Network.client1.ipv4.arp interfaceTableModule "\"Network.client1.interfaceTable\""
par Network.client1.ipv4.arp routingTableModule "\"Network.client1.ipv4.routingTable\""
par Network.client1.ipv4.arp retryTimeout 1s
attr unit s
par Network.client1.ipv4.arp retryCount 3
par Network.client1.ipv4.arp cacheTimeout 60s
attr unit s
par Network.client1.ipv4.arp proxyArpInterfaces "\"\""
par Network.client1.ipv4.lp typename "\"inet.common.MessageDispatcher\""
par Network.client1.ipv4.lp displayStringTextFormat "\"processed %p pk (%l)\""
par Network.client1.ipv4.lp forwardServiceRegistration true
par Network.client1.ipv4.lp forwardProtocolRegistration true
par Network.client1.ipv4 typename "\"inet.networklayer.ipv4.Ipv4NetworkLayer\""
par Network.client1.ipv4 forwarding false
par Network.client1.ipv4 multicastForwarding false
par Network.client1.ipv4 interfaceTableModule "\"Network.client1.interfaceTable\""
par Network.client1.ipv4 displayStringTextFormat "\"%i\""
par Network.client1.nl typename "\"inet.common.MessageDispatcher\""
par Network.client1.nl displayStringTextFormat "\"processed %p pk (%l)\""
par Network.client1.nl forwardServiceRegistration true
par Network.client1.nl forwardProtocolRegistration true
par Network.client1.udp typename "\"inet.transportlayer.udp.Udp\""
par Network.client1.udp interfaceTableModule "\"Network.client1.interfaceTable\""
par Network.client1.udp icmpModule "\"^.ipv4.icmp\""
par Network.client1.udp icmpv6Module "\"^.ipv6.icmpv6\""
par Network.client1.udp crcMode "\"declared\""
attr enum disabled,declared,computed
par Network.client1.udp defaultMulticastLoop true
par Network.client1.tcp typename "\"inet.transportlayer.tcp.Tcp\""
par Network.client1.tcp crcMode "\"declared\""
attr enum declared,computed
par Network.client1.tcp advertisedWindow 7504
par Network.client1.tcp delayedAcksEnabled false
par Network.client1.tcp nagleEnabled true
par Network.client1.tcp limitedTransmitEnabled false
par Network.client1.tcp increasedIWEnabled false
par Network.client1.tcp sackSupport false
par Network.client1.tcp windowScalingSupport false
par Network.client1.tcp windowScalingFactor -1
par Network.client1.tcp timestampSupport false
par Network.client1.tcp mss 536
par Network.client1.tcp msl 120s
attr unit s
par Network.client1.tcp tcpAlgorithmClass "\"TcpReno\""
attr enum TcpVegas,TcpWestwood,TcpNewReno,TcpReno,TcpTahoe,TcpNoCongestionControl
par Network.client1.tcp useDataNotification false
par Network.client1.tcp dupthresh 3
par Network.client1.tcp initialSsthresh 4294967295
par Network.client1.tcp stopOperationExtraTime 0s
attr unit s
par Network.client1.tcp stopOperationTimeout 2s
attr unit s
par Network.client1.tcp ecnWillingness false
par Network.client1.tcp dctcpGamma 0.0625
par Network.client1.tn typename "\"inet.common.MessageDispatcher\""
par Network.client1.tn displayStringTextFormat "\"processed %p pk (%l)\""
par Network.client1.tn forwardServiceRegistration true
par Network.client1.tn forwardProtocolRegistration true
par Network.client1.app[0].source typename "\"inet.queueing.source.ActivePacketSource\""
par Network.client1.app[0].source displayStringTextFormat "\"created %p pk (%l)\""
par Network.client1.app[0].source packetNameFormat "\"%a-%c\""
par Network.client1.app[0].source packetRepresentation "\"byteCount\""
attr units bitCount,bits,byteCount,bytes,applicationPacket
par Network.client1.app[0].source packetLength "intuniform(10000B, 20000B)"
attr unit b
par Network.client1.app[0].source packetData "intuniform(0, 1)"
par Network.client1.app[0].source attachCreationTimeTag true
par Network.client1.app[0].source attachIdentityTag true
par Network.client1.app[0].source attachDirectionTag true
par Network.client1.app[0].source clockModule "\"\""
par Network.client1.app[0].source initialProductionOffset 0s
attr mutable ""
attr unit s
par Network.client1.app[0].source productionInterval 1s
attr unit s
par Network.client1.app[0].source scheduleForAbsoluteTime true
scalar Network.client1.app[0].source packets:count 101
attr recordingmode count
attr source packetPushed
attr title "packets, count"
attr unit pk
par Network.client1.app[0].sink typename "\"inet.queueing.sink.PassivePacketSink\""
par Network.client1.app[0].sink displayStringTextFormat "\"received %p pk (%l)\""
par Network.client1.app[0].sink clockModule "\"\""
par Network.client1.app[0].sink initialConsumptionOffset 0s
attr unit s
par Network.client1.app[0].sink consumptionInterval 0s
attr unit s
par Network.client1.app[0].sink scheduleForAbsoluteTime true
scalar Network.client1.app[0].sink packets:count 172
attr recordingmode count
attr source packetPushed
attr title "packets, count"
attr unit pk
par Network.client1.app[0].io typename "\"inet.applications.udpapp.UdpSocketIo\""
par Network.client1.app[0].io interfaceTableModule "\"Network.client1.app[0].interfaceTable\""
par Network.client1.app[0].io localAddress "\"\""
par Network.client1.app[0].io localPort 1000
par Network.client1.app[0].io destAddress "\"server1\""
par Network.client1.app[0].io destPort 1000
par Network.client1.app[0].io timeToLive -1
par Network.client1.app[0].io dontFragment false
par Network.client1.app[0].io dscp -1
par Network.client1.app[0].io tos -1
par Network.client1.app[0].io multicastInterface "\"\""
par Network.client1.app[0].io multicastAddresses []
par Network.client1.app[0].io receiveBroadcast false
par Network.client1.app[0].io joinLocalMulticastGroups false
par Network.client1.app[0].io stopOperationExtraTime -1s
attr unit s
par Network.client1.app[0].io stopOperationTimeout 2s
attr unit s
scalar Network.client1.app[0].io "packets sent" 101
scalar Network.client1.app[0].io "packets received" 172
par Network.client1.app[0] typename "\"inet.applications.udpapp.UdpApp\""
par Network.client1.app[0] interfaceTableModule "\"Network.client1.interfaceTable\""
par Network.client1.at typename "\"inet.common.MessageDispatcher\""
par Network.client1.at displayStringTextFormat "\"processed %p pk (%l)\""
par Network.client1.at forwardServiceRegistration true
par Network.client1.at forwardProtocolRegistration true
par Network.client1 typename "\"inet.node.inet.StandardHost\""
par Network.client1 hasStatus false
par Network.client1 osgModel "\"\""
par Network.client1 osgModelColor "\"\""
par Network.client1 canvasImage "\"\""
par Network.client1 canvasImageColor "\"\""
par Network.client1 recordPcap false
par Network.client1 numPcapRecorders 0
par Network.client1 numLoInterfaces 1
par Network.client1 numWlanInterfaces 0
par Network.client1 numEthInterfaces 0
par Network.client1 numPppInterfaces 0
par Network.client1 numTunInterfaces 0
par Network.client1 numVirtInterfaces 0
par Network.client1 fcsMode "\"declared\""
attr enum declared,computed
par Network.client1 hasIpv4 true
par Network.client1 hasIpv6 false
par Network.client1 hasGn false
par Network.client1 forwarding false
par Network.client1 multicastForwarding false
par Network.client1 hasUdp true
par Network.client1 hasTcp true
par Network.client1 hasSctp false
par Network.client1 numApps 1
par Network.client3.ethg$i[0].channel typename "\"ned.IdealChannel\""
par Network.client3.eth[0].phys$o.channel typename "\"ned.IdealChannel\""
par Network.client3.interfaceTable typename "\"inet.networklayer.common.InterfaceTable\""
par Network.client3.interfaceTable displayAddresses false
par Network.client3.cb typename "\"inet.common.MessageDispatcher\""
par Network.client3.cb displayStringTextFormat "\"processed %p pk (%l)\""
par Network.client3.cb forwardServiceRegistration true
par Network.client3.cb forwardProtocolRegistration true
par Network.client3.bl typename "\"inet.common.MessageDispatcher\""
par Network.client3.bl displayStringTextFormat "\"processed %p pk (%l)\""
par Network.client3.bl forwardServiceRegistration true
par Network.client3.bl forwardProtocolRegistration true
par Network.client3.ethernet typename "\"inet.linklayer.ethernet.basic.EthernetEncapsulation\""
par Network.client3.ethernet registerProtocol true
par Network.client3.ethernet interfaceTableModule "\"Network.client3.interfaceTable\""
par Network.client3.ethernet fcsMode "\"declared\""
attr enum declared,computed
par Network.client3.ethernet stopOperationExtraTime -1s
attr unit s
par Network.client3.ethernet stopOperationTimeout 2s
attr unit s
par Network.client3.li typename "\"inet.common.MessageDispatcher\""
par Network.client3.li displayStringTextFormat "\"processed %p pk (%l)\""
par Network.client3.li forwardServiceRegistration true
par Network.client3.li forwardProtocolRegistration true
par Network.client3.lo[0].upperLayerIn.channel typename "\"ned.IdealChannel\""
par Network.client3.lo[0].lo.upperLayerOut.channel typename "\"ned.IdealChannel\""
par Network.client3.lo[0].lo typename "\"inet.linklayer.loopback.Loopback\""
par Network.client3.lo[0].lo interfaceTableModule "\"Network.client3.interfaceTable\""
par Network.client3.lo[0].lo mtu 4470B
attr unit B
par Network.client3.lo[0] typename "\"inet.linklayer.loopback.LoopbackInterface\""
par Network.client3.lo[0] displayStringTextFormat "\"%a (%i)\\n%m\""
par Network.client3.lo[0] recordPcap false
par Network.client3.lo[0] numPcapRecorders 0
par Network.client3.lo[0] interfaceTableModule "\"Network.client3.interfaceTable\""
par Network.client3.eth[0].mac.phys$o.channel typename "\"ned.IdealChannel\""
par Network.client3.eth[0].phys$i.channel typename "\"ned.IdealChannel\""
par Network.client3.eth[0].upperLayerIn.channel typename "\"ned.IdealChannel\""
par Network.client3.eth[0].mac.upperLayerOut.channel typename "\"ned.IdealChannel\""
par Network.client3.eth[0].queue typename "\"inet.linklayer.ethernet.common.EthernetQueue\""
par Network.client3.eth[0].queue displayStringTextFormat "\"contains %p pk (%l) pushed %u\\npulled %o removed %r dropped %d\""
par Network.client3.eth[0].queue packetCapacity 1000
par Network.client3.eth[0].queue dataCapacity -1b
attr unit b
par Network.client3.eth[0].queue dropperClass "\"inet::queueing::PacketAtCollectionEndDropper\""
par Network.client3.eth[0].queue comparatorClass "\"inet::EthernetFrameTypeComparator\""
par Network.client3.eth[0].queue bufferModule "\"\""
par Network.client3.eth[0].mac.phys$i.channel typename "\"ned.IdealChannel\""
par Network.client3.eth[0].mac typename "\"inet.linklayer.ethernet.basic.EthernetMac\""
par Network.client3.eth[0].mac interfaceTableModule "\"Network.client3.interfaceTable\""
par Network.client3.eth[0].mac displayStringTextFormat "\"rate: %b\\nsent: %s, rcvd: %r\\nqueue: %q, drop: %d\""
par Network.client3.eth[0].mac sendRawBytes false
par Network.client3.eth[0].mac promiscuous false
par Network.client3.eth[0].mac duplexMode true
par Network.client3.eth[0].mac mtu 1500B
attr unit B
par Network.client3.eth[0].mac fcsMode "\"declared\""
attr enum declared,computed
par Network.client3.eth[0].mac stopOperationExtraTime -1s
attr unit s
par Network.client3.eth[0].mac stopOperationTimeout 2s
attr unit s
par Network.client3.eth[0] typename "\"inet.linklayer.ethernet.EthernetInterface\""
par Network.client3.eth[0] displayStringTextFormat "\"%a (%i)\\n%m\""
par Network.client3.eth[0] recordPcap false
par Network.client3.eth[0] numPcapRecorders 0
par Network.client3.eth[0] interfaceTableModule "\"Network.client3.interfaceTable\""
par Network.client3.eth[0] protocol "\"ethernetmac\""
par Network.client3.eth[0] address "\"0A-AA-00-00-00-02\""
attr mutable ""
par Network.client3.eth[0] duplexMode true
par Network.client3.eth[0] csmacdSupport false
par Network.client3.eth[0] bitrate 0bps
attr unit bps
par Network.client3.eth[0] fcsMode "\"declared\""
attr enum declared,computed
par Network.client3.ipv4.transportIn.channel typename "\"ned.IdealChannel\""
par Network.client3.ipv4.up.out[0].channel typename "\"ned.IdealChannel\""
par Network.client3.ipv4.lp.out[2].channel typename "\"ned.IdealChannel\""
par Network.client3.ipv4.ifIn.channel typename "\"ned.IdealChannel\""
par Network.client3.ipv4.configurator typename "\"inet.networklayer.configurator.ipv4.Ipv4NodeConfigurator\""
par Network.client3.ipv4.configurator interfaceTableModule "\"Network.client3.interfaceTable\""
par Network.client3.ipv4.configurator routingTableModule "\"Network.client3.ipv4.routingTable\""
par Network.client3.ipv4.configurator networkConfiguratorModule "\"configurator\""
par Network.client3.ipv4.configurator configureRoutingTable true
par Network.client3.ipv4.routingTable typename "\"inet.networklayer.ipv4.Ipv4RoutingTable\""
par Network.client3.ipv4.routingTable interfaceTableModule "\"Network.client3.interfaceTable\""
par Network.client3.ipv4.routingTable routerId "\"auto\""
par Network.client3.ipv4.routingTable netmaskRoutes "\"*\""
par Network.client3.ipv4.routingTable forwarding false
par Network.client3.ipv4.routingTable multicastForwarding false
par Network.client3.ipv4.routingTable useAdminDist false
par Network.client3.ipv4.routingTable routingFile "\"\""
par Network.client3.ipv4.natTable typename "\"inet.networklayer.ipv4.Ipv4NatTable\""
par Network.client3.ipv4.natTable networkProtocolModule "\"^.ip\""
par Network.client3.ipv4.natTable config "<config/> at content:1"
par Network.client3.ipv4.up typename "\"inet.common.MessageDispatcher\""
par Network.client3.ipv4.up displayStringTextFormat "\"processed %p pk (%l)\""
par Network.client3.ipv4.up forwardServiceRegistration true
par Network.client3.ipv4.up forwardProtocolRegistration true
par Network.client3.ipv4.igmp typename "\"inet.networklayer.ipv4.Igmpv2\""
par Network.client3.ipv4.igmp interfaceTableModule "\"Network.client3.interfaceTable\""
par Network.client3.ipv4.igmp routingTableModule "\"Network.client3.ipv4.routingTable\""
par Network.client3.ipv4.igmp crcMode "\"declared\""
attr enum declared,computed
par Network.client3.ipv4.igmp enabled true
par Network.client3.ipv4.igmp robustnessVariable 2
par Network.client3.ipv4.igmp queryInterval 125s
attr unit s
par Network.client3.ipv4.igmp queryResponseInterval 10s
attr unit s
par Network.client3.ipv4.igmp groupMembershipInterval 260s
attr unit s
par Network.client3.ipv4.igmp otherQuerierPresentInterval 255s
attr unit s
par Network.client3.ipv4.igmp startupQueryInterval 31.25s
attr unit s
par Network.client3.ipv4.igmp startupQueryCount 2
par Network.client3.ipv4.igmp lastMemberQueryInterval 1s
attr unit s
par Network.client3.ipv4.igmp lastMemberQueryCount 2
par Network.client3.ipv4.igmp unsolicitedReportInterval 10s
attr unit s
par Network.client3.ipv4.icmp typename "\"inet.networklayer.ipv4.Icmp\""
par Network.client3.ipv4.icmp interfaceTableModule "\"Network.client3.interfaceTable\""
par Network.client3.ipv4.icmp routingTableModule "\"Network.client3.ipv4.routingTable\""
par Network.client3.ipv4.icmp crcMode "\"declared\""
attr enum declared,computed
attr mutable ""
par Network.client3.ipv4.icmp quoteLength 8B
attr mutable ""
attr unit B
par Network.client3.ipv4.mp typename "\"inet.common.MessageDispatcher\""
par Network.client3.ipv4.mp displayStringTextFormat "\"processed %p pk (%l)\""
par Network.client3.ipv4.mp forwardServiceRegistration true
par Network.client3.ipv4.mp forwardProtocolRegistration true
par Network.client3.ipv4.ip typename "\"inet.networklayer.ipv4.Ipv4\""
par Network.client3.ipv4.ip interfaceTableModule "\"Network.client3.interfaceTable\""
par Network.client3.ipv4.ip routingTableModule "\"Network.client3.ipv4.routingTable\""
par Network.client3.ipv4.ip arpModule "\"Network.client3.ipv4.arp\""
par Network.client3.ipv4.ip icmpModule "\"Network.client3.ipv4.icmp\""
par Network.client3.ipv4.ip crcMode "\"declared\""
attr enum declared,computed
par Network.client3.ipv4.ip timeToLive 32
par Network.client3.ipv4.ip multicastTimeToLive 32
par Network.client3.ipv4.ip fragmentTimeout 60s
attr unit s
par Network.client3.ipv4.ip limitedBroadcast false
par Network.client3.ipv4.ip directBroadcastInterfaces "\"\""
par Network.client3.ipv4.arp typename "\"inet.networklayer.arp.ipv4.Arp\""
par Network.client3.ipv4.arp interfaceTableModule "\"Network.client3.interfaceTable\""
par Network.client3.ipv4.arp routingTableModule "\"Network.client3.ipv4.routingTable\""
par Network.client3.ipv4.arp retryTimeout 1s
attr unit s
par Network.client3.ipv4.arp retryCount 3
par Network.client3.ipv4.arp cacheTimeout 60s
attr unit s
par Network.client3.ipv4.arp proxyArpInterfaces "\"\""
par Network.client3.ipv4.lp typename "\"inet.common.MessageDispatcher\""
par Network.client3.ipv4.lp displayStringTextFormat "\"processed %p pk (%l)\""
par Network.client3.ipv4.lp forwardServiceRegistration true
par Network.client3.ipv4.lp forwardProtocolRegistration true
par Network.client3.ipv4 typename "\"inet.networklayer.ipv4.Ipv4NetworkLayer\""
par Network.client3.ipv4 forwarding false
par Network.client3.ipv4 multicastForwarding false
par Network.client3.ipv4 interfaceTableModule "\"Network.client3.interfaceTable\""
par Network.client3.ipv4 displayStringTextFormat "\"%i\""
par Network.client3.nl typename "\"inet.common.MessageDispatcher\""
par Network.client3.nl displayStringTextFormat "\"processed %p pk (%l)\""
par Network.client3.nl forwardServiceRegistration true
par Network.client3.nl forwardProtocolRegistration true
par Network.client3.udp typename "\"inet.transportlayer.udp.Udp\""
par Network.client3.udp interfaceTableModule "\"Network.client3.interfaceTable\""
par Network.client3.udp icmpModule "\"^.ipv4.icmp\""
par Network.client3.udp icmpv6Module "\"^.ipv6.icmpv6\""
par Network.client3.udp crcMode "\"declared\""
attr enum disabled,declared,computed
par Network.client3.udp defaultMulticastLoop true
par Network.client3.tcp typename "\"inet.transportlayer.tcp.Tcp\""
par Network.client3.tcp crcMode "\"declared\""
attr enum declared,computed
par Network.client3.tcp advertisedWindow 7504
par Network.client3.tcp delayedAcksEnabled false
par Network.client3.tcp nagleEnabled true
par Network.client3.tcp limitedTransmitEnabled false
par Network.client3.tcp increasedIWEnabled false
par Network.client3.tcp sackSupport false
par Network.client3.tcp windowScalingSupport false
par Network.client3.tcp windowScalingFactor -1
par Network.client3.tcp timestampSupport false
par Network.client3.tcp mss 536
par Network.client3.tcp msl 120s
attr unit s
par Network.client3.tcp tcpAlgorithmClass "\"TcpReno\""
attr enum TcpVegas,TcpWestwood,TcpNewReno,TcpReno,TcpTahoe,TcpNoCongestionControl
par Network.client3.tcp useDataNotification false
par Network.client3.tcp dupthresh 3
par Network.client3.tcp initialSsthresh 4294967295
par Network.client3.tcp stopOperationExtraTime 0s
attr unit s
par Network.client3.tcp stopOperationTimeout 2s
attr unit s
par Network.client3.tcp ecnWillingness false
par Network.client3.tcp dctcpGamma 0.0625
par Network.client3.tn typename "\"inet.common.MessageDispatcher\""
par Network.client3.tn displayStringTextFormat "\"processed %p pk (%l)\""
par Network.client3.tn forwardServiceRegistration true
par Network.client3.tn forwardProtocolRegistration true
par Network.client3.app[0].source typename "\"inet.queueing.source.ActivePacketSource\""
par Network.client3.app[0].source displayStringTextFormat "\"created %p pk (%l)\""
par Network.client3.app[0].source packetNameFormat "\"%a-%c\""
par Network.client3.app[0].source packetRepresentation "\"byteCount\""
attr units bitCount,bits,byteCount,bytes,applicationPacket
par Network.client3.app[0].source packetLength "intuniform(10000B, 20000B)"
attr unit b
par Network.client3.app[0].source packetData "intuniform(0, 1)"
par Network.client3.app[0].source attachCreationTimeTag true
par Network.client3.app[0].source attachIdentityTag true
par Network.client3.app[0].source attachDirectionTag true
par Network.client3.app[0].source clockModule "\"\""
par Network.client3.app[0].source initialProductionOffset 0s
attr mutable ""
attr unit s
par Network.client3.app[0].source productionInterval 1s
attr unit s
par Network.client3.app[0].source scheduleForAbsoluteTime true
scalar Network.client3.app[0].source packets:count 101
attr recordingmode count
attr source packetPushed
attr title "packets, count"
attr unit pk
par Network.client3.app[0].sink typename "\"inet.queueing.sink.PassivePacketSink\""
par Network.client3.app[0].sink displayStringTextFormat "\"received %p pk (%l)\""
par Network.client3.app[0].sink clockModule "\"\""
par Network.client3.app[0].sink initialConsumptionOffset 0s
attr unit s
par Network.client3.app[0].sink consumptionInterval 0s
attr unit s
par Network.client3.app[0].sink scheduleForAbsoluteTime true
scalar Network.client3.app[0].sink packets:count 0
attr recordingmode count
attr source packetPushed
attr title "packets, count"
attr unit pk
par Network.client3.app[0].io typename "\"inet.applications.udpapp.UdpSocketIo\""
par Network.client3.app[0].io interfaceTableModule "\"Network.client3.app[0].interfaceTable\""
par Network.client3.app[0].io localAddress "\"\""
par Network.client3.app[0].io localPort 1000
par Network.client3.app[0].io destAddress "\"server1\""
par Network.client3.app[0].io destPort 1000
par Network.client3.app[0].io timeToLive -1
par Network.client3.app[0].io dontFragment false
par Network.client3.app[0].io dscp -1
par Network.client3.app[0].io tos -1
par Network.client3.app[0].io multicastInterface "\"\""
par Network.client3.app[0].io multicastAddresses []
par Network.client3.app[0].io receiveBroadcast false
par Network.client3.app[0].io joinLocalMulticastGroups false
par Network.client3.app[0].io stopOperationExtraTime -1s
attr unit s
par Network.client3.app[0].io stopOperationTimeout 2s
attr unit s
scalar Network.client3.app[0].io "packets sent" 101
scalar Network.client3.app[0].io "packets received" 0
par Network.client3.app[0] typename "\"inet.applications.udpapp.UdpApp\""
par Network.client3.app[0] interfaceTableModule "\"Network.client3.interfaceTable\""
par Network.client3.at typename "\"inet.common.MessageDispatcher\""
par Network.client3.at displayStringTextFormat "\"processed %p pk (%l)\""
par Network.client3.at forwardServiceRegistration true
par Network.client3.at forwardProtocolRegistration true
par Network.client3 typename "\"inet.node.inet.StandardHost\""
par Network.client3 hasStatus false
par Network.client3 osgModel "\"\""
par Network.client3 osgModelColor "\"\""
par Network.client3 canvasImage "\"\""
par Network.client3 canvasImageColor "\"\""
par Network.client3 recordPcap false
par Network.client3 numPcapRecorders 0
par Network.client3 numLoInterfaces 1
par Network.client3 numWlanInterfaces 0
par Network.client3 numEthInterfaces 0
par Network.client3 numPppInterfaces 0
par Network.client3 numTunInterfaces 0
par Network.client3 numVirtInterfaces 0
par Network.client3 fcsMode "\"declared\""
attr enum declared,computed
par Network.client3 hasIpv4 true
par Network.client3 hasIpv6 false
par Network.client3 hasGn false
par Network.client3 forwarding false
par Network.client3 multicastForwarding false
par Network.client3 hasUdp true
par Network.client3 hasTcp true
par Network.client3 hasSctp false
par Network.client3 numApps 1
par Network.client4.ethg$i[0].channel typename "\"ned.IdealChannel\""
par Network.client4.eth[0].phys$o.channel typename "\"ned.IdealChannel\""
par Network.client4.interfaceTable typename "\"inet.networklayer.common.InterfaceTable\""
par Network.client4.interfaceTable displayAddresses false
par Network.client4.cb typename "\"inet.common.MessageDispatcher\""
par Network.client4.cb displayStringTextFormat "\"processed %p pk (%l)\""
par Network.client4.cb forwardServiceRegistration true
par Network.client4.cb forwardProtocolRegistration true
par Network.client4.bl typename "\"inet.common.MessageDispatcher\""
par Network.client4.bl displayStringTextFormat "\"processed %p pk (%l)\""
par Network.client4.bl forwardServiceRegistration true
par Network.client4.bl forwardProtocolRegistration true
par Network.client4.ethernet typename "\"inet.linklayer.ethernet.basic.EthernetEncapsulation\""
par Network.client4.ethernet registerProtocol true
par Network.client4.ethernet interfaceTableModule "\"Network.client4.interfaceTable\""
par Network.client4.ethernet fcsMode "\"declared\""
attr enum declared,computed
par Network.client4.ethernet stopOperationExtraTime -1s
attr unit s
par Network.client4.ethernet stopOperationTimeout 2s
attr unit s
par Network.client4.li typename "\"inet.common.MessageDispatcher\""
par Network.client4.li displayStringTextFormat "\"processed %p pk (%l)\""
par Network.client4.li forwardServiceRegistration true
par Network.client4.li forwardProtocolRegistration true
par Network.client4.lo[0].upperLayerIn.channel typename "\"ned.IdealChannel\""
par Network.client4.lo[0].lo.upperLayerOut.channel typename "\"ned.IdealChannel\""
par Network.client4.lo[0].lo typename "\"inet.linklayer.loopback.Loopback\""
par Network.client4.lo[0].lo interfaceTableModule "\"Network.client4.interfaceTable\""
par Network.client4.lo[0].lo mtu 4470B
attr unit B
par Network.client4.lo[0] typename "\"inet.linklayer.loopback.LoopbackInterface\""
par Network.client4.lo[0] displayStringTextFormat "\"%a (%i)\\n%m\""
par Network.client4.lo[0] recordPcap false
par Network.client4.lo[0] numPcapRecorders 0
par Network.client4.lo[0] interfaceTableModule "\"Network.client4.interfaceTable\""
par Network.client4.eth[0].mac.phys$o.channel typename "\"ned.IdealChannel\""
par Network.client4.eth[0].phys$i.channel typename "\"ned.IdealChannel\""
par Network.client4.eth[0].upperLayerIn.channel typename "\"ned.IdealChannel\""
par Network.client4.eth[0].mac.upperLayerOut.channel typename "\"ned.IdealChannel\""
par Network.client4.eth[0].queue typename "\"inet.linklayer.ethernet.common.EthernetQueue\""
par Network.client4.eth[0].queue displayStringTextFormat "\"contains %p pk (%l) pushed %u\\npulled %o removed %r dropped %d\""
par Network.client4.eth[0].queue packetCapacity 1000
par Network.client4.eth[0].queue dataCapacity -1b
attr unit b
par Network.client4.eth[0].queue dropperClass "\"inet::queueing::PacketAtCollectionEndDropper\""
par Network.client4.eth[0].queue comparatorClass "\"inet::EthernetFrameTypeComparator\""
par Network.client4.eth[0].queue bufferModule "\"\""
par Network.client4.eth[0].mac.phys$i.channel typename "\"ned.IdealChannel\""
par Network.client4.eth[0].mac typename "\"inet.linklayer.ethernet.basic.EthernetMac\""
par Network.client4.eth[0].mac interfaceTableModule "\"Network.client4.interfaceTable\""
par Network.client4.eth[0].mac displayStringTextFormat "\"rate: %b\\nsent: %s, rcvd: %r\\nqueue: %q, drop: %d\""
par Network.client4.eth[0].mac sendRawBytes false
par Network.client4.eth[0].mac promiscuous false
par Network.client4.eth[0].mac duplexMode true
par Network.client4.eth[0].mac mtu 1500B
attr unit B
par Network.client4.eth[0].mac fcsMode "\"declared\""
attr enum declared,computed
par Network.client4.eth[0].mac stopOperationExtraTime -1s
attr unit s
par Network.client4.eth[0].mac stopOperationTimeout 2s
attr unit s
par Network.client4.eth[0] typename "\"inet.linklayer.ethernet.EthernetInterface\""
par Network.client4.eth[0] displayStringTextFormat "\"%a (%i)\\n%m\""
par Network.client4.eth[0] recordPcap false
par Network.client4.eth[0] numPcapRecorders 0
par Network.client4.eth[0] interfaceTableModule "\"Network.client4.interfaceTable\""
par Network.client4.eth[0] protocol "\"ethernetmac\""
par Network.client4.eth[0] address "\"0A-AA-00-00-00-03\""
attr mutable ""
par Network.client4.eth[0] duplexMode true
par Network.client4.eth[0] csmacdSupport false
par Network.client4.eth[0] bitrate 0bps
attr unit bps
par Network.client4.eth[0] fcsMode "\"declared\""
attr enum declared,computed
par Network.client4.ipv4.transportIn.channel typename "\"ned.IdealChannel\""
par Network.client4.ipv4.up.out[0].channel typename "\"ned.IdealChannel\""
par Network.client4.ipv4.lp.out[2].channel typename "\"ned.IdealChannel\""
par Network.client4.ipv4.ifIn.channel typename "\"ned.IdealChannel\""
par Network.client4.ipv4.configurator typename "\"inet.networklayer.configurator.ipv4.Ipv4NodeConfigurator\""
par Network.client4.ipv4.configurator interfaceTableModule "\"Network.client4.interfaceTable\""
par Network.client4.ipv4.configurator routingTableModule "\"Network.client4.ipv4.routingTable\""
par Network.client4.ipv4.configurator networkConfiguratorModule "\"configurator\""
par Network.client4.ipv4.configurator configureRoutingTable true
par Network.client4.ipv4.routingTable typename "\"inet.networklayer.ipv4.Ipv4RoutingTable\""
par Network.client4.ipv4.routingTable interfaceTableModule "\"Network.client4.interfaceTable\""
par Network.client4.ipv4.routingTable routerId "\"auto\""
par Network.client4.ipv4.routingTable netmaskRoutes "\"*\""
par Network.client4.ipv4.routingTable forwarding false
par Network.client4.ipv4.routingTable multicastForwarding false
par Network.client4.ipv4.routingTable useAdminDist false
par Network.client4.ipv4.routingTable routingFile "\"\""
par Network.client4.ipv4.natTable typename "\"inet.networklayer.ipv4.Ipv4NatTable\""
par Network.client4.ipv4.natTable networkProtocolModule "\"^.ip\""
par Network.client4.ipv4.natTable config "<config/> at content:1"
par Network.client4.ipv4.up typename "\"inet.common.MessageDispatcher\""
par Network.client4.ipv4.up displayStringTextFormat "\"processed %p pk (%l)\""
par Network.client4.ipv4.up forwardServiceRegistration true
par Network.client4.ipv4.up forwardProtocolRegistration true
par Network.client4.ipv4.igmp typename "\"inet.networklayer.ipv4.Igmpv2\""
par Network.client4.ipv4.igmp interfaceTableModule "\"Network.client4.interfaceTable\""
par Network.client4.ipv4.igmp routingTableModule "\"Network.client4.ipv4.routingTable\""
par Network.client4.ipv4.igmp crcMode "\"declared\""
attr enum declared,computed
par Network.client4.ipv4.igmp enabled true
par Network.client4.ipv4.igmp robustnessVariable 2
par Network.client4.ipv4.igmp queryInterval 125s
attr unit s
par Network.client4.ipv4.igmp queryResponseInterval 10s
attr unit s
par Network.client4.ipv4.igmp groupMembershipInterval 260s
attr unit s
par Network.client4.ipv4.igmp otherQuerierPresentInterval 255s
attr unit s
par Network.client4.ipv4.igmp startupQueryInterval 31.25s
attr unit s
par Network.client4.ipv4.igmp startupQueryCount 2
par Network.client4.ipv4.igmp lastMemberQueryInterval 1s
attr unit s
par Network.client4.ipv4.igmp lastMemberQueryCount 2
par Network.client4.ipv4.igmp unsolicitedReportInterval 10s
attr unit s
par Network.client4.ipv4.icmp typename "\"inet.networklayer.ipv4.Icmp\""
par Network.client4.ipv4.icmp interfaceTableModule "\"Network.client4.interfaceTable\""
par Network.client4.ipv4.icmp routingTableModule "\"Network.client4.ipv4.routingTable\""
par Network.client4.ipv4.icmp crcMode "\"declared\""
attr enum declared,computed
attr mutable ""
par Network.client4.ipv4.icmp quoteLength 8B
attr mutable ""
attr unit B
par Network.client4.ipv4.mp typename "\"inet.common.MessageDispatcher\""
par Network.client4.ipv4.mp displayStringTextFormat "\"processed %p pk (%l)\""
par Network.client4.ipv4.mp forwardServiceRegistration true
par Network.client4.ipv4.mp forwardProtocolRegistration true
par Network.client4.ipv4.ip typename "\"inet.networklayer.ipv4.Ipv4\""
par Network.client4.ipv4.ip interfaceTableModule "\"Network.client4.interfaceTable\""
par Network.client4.ipv4.ip routingTableModule "\"Network.client4.ipv4.routingTable\""
par Network.client4.ipv4.ip arpModule "\"Network.client4.ipv4.arp\""
par Network.client4.ipv4.ip icmpModule "\"Network.client4.ipv4.icmp\""
par Network.client4.ipv4.ip crcMode "\"declared\""
attr enum declared,computed
par Network.client4.ipv4.ip timeToLive 32
par Network.client4.ipv4.ip multicastTimeToLive 32
par Network.client4.ipv4.ip fragmentTimeout 60s
attr unit s
par Network.client4.ipv4.ip limitedBroadcast false
par Network.client4.ipv4.ip directBroadcastInterfaces "\"\""
par Network.client4.ipv4.arp typename "\"inet.networklayer.arp.ipv4.Arp\""
par Network.client4.ipv4.arp interfaceTableModule "\"Network.client4.interfaceTable\""
par Network.client4.ipv4.arp routingTableModule "\"Network.client4.ipv4.routingTable\""
par Network.client4.ipv4.arp retryTimeout 1s
attr unit s
par Network.client4.ipv4.arp retryCount 3
par Network.client4.ipv4.arp cacheTimeout 60s
attr unit s
par Network.client4.ipv4.arp proxyArpInterfaces "\"\""
par Network.client4.ipv4.lp typename "\"inet.common.MessageDispatcher\""
par Network.client4.ipv4.lp displayStringTextFormat "\"processed %p pk (%l)\""
par Network.client4.ipv4.lp forwardServiceRegistration true
par Network.client4.ipv4.lp forwardProtocolRegistration true
par Network.client4.ipv4 typename "\"inet.networklayer.ipv4.Ipv4NetworkLayer\""
par Network.client4.ipv4 forwarding false
par Network.client4.ipv4 multicastForwarding false
par Network.client4.ipv4 interfaceTableModule "\"Network.client4.interfaceTable\""
par Network.client4.ipv4 displayStringTextFormat "\"%i\""
par Network.client4.nl typename "\"inet.common.MessageDispatcher\""
par Network.client4.nl displayStringTextFormat "\"processed %p pk (%l)\""
par Network.client4.nl forwardServiceRegistration true
par Network.client4.nl forwardProtocolRegistration true
par Network.client4.udp typename "\"inet.transportlayer.udp.Udp\""
par Network.client4.udp interfaceTableModule "\"Network.client4.interfaceTable\""
par Network.client4.udp icmpModule "\"^.ipv4.icmp\""
par Network.client4.udp icmpv6Module "\"^.ipv6.icmpv6\""
par Network.client4.udp crcMode "\"declared\""
attr enum disabled,declared,computed
par Network.client4.udp defaultMulticastLoop true
par Network.client4.tcp typename "\"inet.transportlayer.tcp.Tcp\""
par Network.client4.tcp crcMode "\"declared\""
attr enum declared,computed
par Network.client4.tcp advertisedWindow 7504
par Network.client4.tcp delayedAcksEnabled false
par Network.client4.tcp nagleEnabled true
par Network.client4.tcp limitedTransmitEnabled false
par Network.client4.tcp increasedIWEnabled false
par Network.client4.tcp sackSupport false
par Network.client4.tcp windowScalingSupport false
par Network.client4.tcp windowScalingFactor -1
par Network.client4.tcp timestampSupport false
par Network.client4.tcp mss 536
par Network.client4.tcp msl 120s
attr unit s
par Network.client4.tcp tcpAlgorithmClass "\"TcpReno\""
attr enum TcpVegas,TcpWestwood,TcpNewReno,TcpReno,TcpTahoe,TcpNoCongestionControl
par Network.client4.tcp useDataNotification false
par Network.client4.tcp dupthresh 3
par Network.client4.tcp initialSsthresh 4294967295
par Network.client4.tcp stopOperationExtraTime 0s
attr unit s
par Network.client4.tcp stopOperationTimeout 2s
attr unit s
par Network.client4.tcp ecnWillingness false
par Network.client4.tcp dctcpGamma 0.0625
par Network.client4.tn typename "\"inet.common.MessageDispatcher\""
par Network.client4.tn displayStringTextFormat "\"processed %p pk (%l)\""
par Network.client4.tn forwardServiceRegistration true
par Network.client4.tn forwardProtocolRegistration true
par Network.client4.app[0].source typename "\"inet.queueing.source.ActivePacketSource\""
par Network.client4.app[0].source displayStringTextFormat "\"created %p pk (%l)\""
par Network.client4.app[0].source packetNameFormat "\"%a-%c\""
par Network.client4.app[0].source packetRepresentation "\"byteCount\""
attr units bitCount,bits,byteCount,bytes,applicationPacket
par Network.client4.app[0].source packetLength "intuniform(10000B, 20000B)"
attr unit b
par Network.client4.app[0].source packetData "intuniform(0, 1)"
par Network.client4.app[0].source attachCreationTimeTag true
par Network.client4.app[0].source attachIdentityTag true
par Network.client4.app[0].source attachDirectionTag true
par Network.client4.app[0].source clockModule "\"\""
par Network.client4.app[0].source initialProductionOffset 0s
attr mutable ""
attr unit s
par Network.client4.app[0].source productionInterval 1s
attr unit s
par Network.client4.app[0].source scheduleForAbsoluteTime true
scalar Network.client4.app[0].source packets:count 101
attr recordingmode count
attr source packetPushed
attr title "packets, count"
attr unit pk
par Network.client4.app[0].sink typename "\"inet.queueing.sink.PassivePacketSink\""
par Network.client4.app[0].sink displayStringTextFormat "\"received %p pk (%l)\""
par Network.client4.app[0].sink clockModule "\"\""
par Network.client4.app[0].sink initialConsumptionOffset 0s
attr unit s
par Network.client4.app[0].sink consumptionInterval 0s
attr unit s
par Network.client4.app[0].sink scheduleForAbsoluteTime true
scalar Network.client4.app[0].sink packets:count 0
attr recordingmode count
attr source packetPushed
attr title "packets, count"
[...]
par Network.open_flow_controller1.ipv4.configurator configureRoutingTable true
par Network.open_flow_controller1.ipv4.routingTable typename "\"inet.networklayer.ipv4.Ipv4RoutingTable\""
par Network.open_flow_controller1.ipv4.routingTable interfaceTableModule "\"Network.open_flow_controller1.interfaceTable\""
par Network.open_flow_controller1.ipv4.routingTable routerId "\"auto\""
par Network.open_flow_controller1.ipv4.routingTable netmaskRoutes "\"*\""
par Network.open_flow_controller1.ipv4.routingTable forwarding false
par Network.open_flow_controller1.ipv4.routingTable multicastForwarding false
par Network.open_flow_controller1.ipv4.routingTable useAdminDist false
par Network.open_flow_controller1.ipv4.routingTable routingFile "\"\""
par Network.open_flow_controller1.ipv4.natTable typename "\"inet.networklayer.ipv4.Ipv4NatTable\""
par Network.open_flow_controller1.ipv4.natTable networkProtocolModule "\"^.ip\""
par Network.open_flow_controller1.ipv4.natTable config "<config/> at content:1"
par Network.open_flow_controller1.ipv4.up typename "\"inet.common.MessageDispatcher\""
par Network.open_flow_controller1.ipv4.up displayStringTextFormat "\"processed %p pk (%l)\""
par Network.open_flow_controller1.ipv4.up forwardServiceRegistration true
par Network.open_flow_controller1.ipv4.up forwardProtocolRegistration true
par Network.open_flow_controller1.ipv4.igmp typename "\"inet.networklayer.ipv4.Igmpv2\""
par Network.open_flow_controller1.ipv4.igmp interfaceTableModule "\"Network.open_flow_controller1.interfaceTable\""
par Network.open_flow_controller1.ipv4.igmp routingTableModule "\"Network.open_flow_controller1.ipv4.routingTable\""
par Network.open_flow_controller1.ipv4.igmp crcMode "\"declared\""
attr enum declared,computed
par Network.open_flow_controller1.ipv4.igmp enabled true
par Network.open_flow_controller1.ipv4.igmp robustnessVariable 2
par Network.open_flow_controller1.ipv4.igmp queryInterval 125s
attr unit s
par Network.open_flow_controller1.ipv4.igmp queryResponseInterval 10s
attr unit s
par Network.open_flow_controller1.ipv4.igmp groupMembershipInterval 260s
attr unit s
par Network.open_flow_controller1.ipv4.igmp otherQuerierPresentInterval 255s
attr unit s
par Network.open_flow_controller1.ipv4.igmp startupQueryInterval 31.25s
attr unit s
par Network.open_flow_controller1.ipv4.igmp startupQueryCount 2
par Network.open_flow_controller1.ipv4.igmp lastMemberQueryInterval 1s
attr unit s
par Network.open_flow_controller1.ipv4.igmp lastMemberQueryCount 2
par Network.open_flow_controller1.ipv4.igmp unsolicitedReportInterval 10s
attr unit s
par Network.open_flow_controller1.ipv4.icmp typename "\"inet.networklayer.ipv4.Icmp\""
par Network.open_flow_controller1.ipv4.icmp interfaceTableModule "\"Network.open_flow_controller1.interfaceTable\""
par Network.open_flow_controller1.ipv4.icmp routingTableModule "\"Network.open_flow_controller1.ipv4.routingTable\""
par Network.open_flow_controller1.ipv4.icmp crcMode "\"declared\""
attr enum declared,computed
attr mutable ""
par Network.open_flow_controller1.ipv4.icmp quoteLength 8B
attr mutable ""
attr unit B
par Network.open_flow_controller1.ipv4.mp typename "\"inet.common.MessageDispatcher\""
par Network.open_flow_controller1.ipv4.mp displayStringTextFormat "\"processed %p pk (%l)\""
par Network.open_flow_controller1.ipv4.mp forwardServiceRegistration true
par Network.open_flow_controller1.ipv4.mp forwardProtocolRegistration true
par Network.open_flow_controller1.ipv4.ip typename "\"inet.networklayer.ipv4.Ipv4\""
par Network.open_flow_controller1.ipv4.ip interfaceTableModule "\"Network.open_flow_controller1.interfaceTable\""
par Network.open_flow_controller1.ipv4.ip routingTableModule "\"Network.open_flow_controller1.ipv4.routingTable\""
par Network.open_flow_controller1.ipv4.ip arpModule "\"Network.open_flow_controller1.ipv4.arp\""
par Network.open_flow_controller1.ipv4.ip icmpModule "\"Network.open_flow_controller1.ipv4.icmp\""
par Network.open_flow_controller1.ipv4.ip crcMode "\"declared\""
attr enum declared,computed
par Network.open_flow_controller1.ipv4.ip timeToLive 32
par Network.open_flow_controller1.ipv4.ip multicastTimeToLive 32
par Network.open_flow_controller1.ipv4.ip fragmentTimeout 60s
attr unit s
par Network.open_flow_controller1.ipv4.ip limitedBroadcast false
par Network.open_flow_controller1.ipv4.ip directBroadcastInterfaces "\"\""
par Network.open_flow_controller1.ipv4.arp typename "\"inet.networklayer.arp.ipv4.Arp\""
par Network.open_flow_controller1.ipv4.arp interfaceTableModule "\"Network.open_flow_controller1.interfaceTable\""
par Network.open_flow_controller1.ipv4.arp routingTableModule "\"Network.open_flow_controller1.ipv4.routingTable\""
par Network.open_flow_controller1.ipv4.arp retryTimeout 1s
attr unit s
par Network.open_flow_controller1.ipv4.arp retryCount 3
par Network.open_flow_controller1.ipv4.arp cacheTimeout 60s
attr unit s
par Network.open_flow_controller1.ipv4.arp proxyArpInterfaces "\"*\""
par Network.open_flow_controller1.ipv4.lp typename "\"inet.common.MessageDispatcher\""
par Network.open_flow_controller1.ipv4.lp displayStringTextFormat "\"processed %p pk (%l)\""
par Network.open_flow_controller1.ipv4.lp forwardServiceRegistration true
par Network.open_flow_controller1.ipv4.lp forwardProtocolRegistration true
par Network.open_flow_controller1.ipv4 typename "\"inet.networklayer.ipv4.Ipv4NetworkLayer\""
par Network.open_flow_controller1.ipv4 forwarding false
par Network.open_flow_controller1.ipv4 multicastForwarding false
par Network.open_flow_controller1.ipv4 interfaceTableModule "\"Network.open_flow_controller1.interfaceTable\""
par Network.open_flow_controller1.ipv4 displayStringTextFormat "\"%i\""
par Network.open_flow_controller1.eth[0].mac.phys$o.channel typename "\"ned.IdealChannel\""
par Network.open_flow_controller1.eth[0].phys$i.channel typename "\"ned.IdealChannel\""
par Network.open_flow_controller1.eth[0].upperLayerIn.channel typename "\"ned.IdealChannel\""
par Network.open_flow_controller1.eth[0].mac.upperLayerOut.channel typename "\"ned.IdealChannel\""
par Network.open_flow_controller1.eth[0].queue typename "\"inet.linklayer.ethernet.common.EthernetQueue\""
par Network.open_flow_controller1.eth[0].queue displayStringTextFormat "\"contains %p pk (%l) pushed %u\\npulled %o removed %r dropped %d\""
par Network.open_flow_controller1.eth[0].queue packetCapacity 1000
par Network.open_flow_controller1.eth[0].queue dataCapacity -1b
attr unit b
par Network.open_flow_controller1.eth[0].queue dropperClass "\"inet::queueing::PacketAtCollectionEndDropper\""
par Network.open_flow_controller1.eth[0].queue comparatorClass "\"inet::EthernetFrameTypeComparator\""
par Network.open_flow_controller1.eth[0].queue bufferModule "\"\""
par Network.open_flow_controller1.eth[0].mac typename "\"inet.linklayer.ethernet.basic.EthernetMac\""
par Network.open_flow_controller1.eth[0].mac interfaceTableModule "\"Network.open_flow_controller1.interfaceTable\""
par Network.open_flow_controller1.eth[0].mac displayStringTextFormat "\"rate: %b\\nsent: %s, rcvd: %r\\nqueue: %q, drop: %d\""
par Network.open_flow_controller1.eth[0].mac sendRawBytes false
par Network.open_flow_controller1.eth[0].mac promiscuous false
par Network.open_flow_controller1.eth[0].mac duplexMode true
par Network.open_flow_controller1.eth[0].mac mtu 1500B
attr unit B
par Network.open_flow_controller1.eth[0].mac fcsMode "\"declared\""
attr enum declared,computed
par Network.open_flow_controller1.eth[0].mac stopOperationExtraTime -1s
attr unit s
par Network.open_flow_controller1.eth[0].mac stopOperationTimeout 2s
attr unit s
par Network.open_flow_controller1.eth[0] typename "\"inet.linklayer.ethernet.EthernetInterface\""
par Network.open_flow_controller1.eth[0] displayStringTextFormat "\"%a (%i)\\n%m\""
par Network.open_flow_controller1.eth[0] recordPcap false
par Network.open_flow_controller1.eth[0] numPcapRecorders 0
par Network.open_flow_controller1.eth[0] interfaceTableModule "\"Network.open_flow_controller1.interfaceTable\""
par Network.open_flow_controller1.eth[0] protocol "\"ethernetmac\""
par Network.open_flow_controller1.eth[0] address "\"0A-AA-00-00-00-1D\""
attr mutable ""
par Network.open_flow_controller1.eth[0] duplexMode true
par Network.open_flow_controller1.eth[0] csmacdSupport false
par Network.open_flow_controller1.eth[0] bitrate 0bps
attr unit bps
par Network.open_flow_controller1.eth[0] fcsMode "\"declared\""
attr enum declared,computed
par Network.open_flow_controller1.eth[1].mac.phys$o.channel typename "\"ned.IdealChannel\""
par Network.open_flow_controller1.eth[1].phys$i.channel typename "\"ned.IdealChannel\""
par Network.open_flow_controller1.eth[1].upperLayerIn.channel typename "\"ned.IdealChannel\""
par Network.open_flow_controller1.eth[1].mac.upperLayerOut.channel typename "\"ned.IdealChannel\""
par Network.open_flow_controller1.eth[1].queue typename "\"inet.linklayer.ethernet.common.EthernetQueue\""
par Network.open_flow_controller1.eth[1].queue displayStringTextFormat "\"contains %p pk (%l) pushed %u\\npulled %o removed %r dropped %d\""
par Network.open_flow_controller1.eth[1].queue packetCapacity 1000
par Network.open_flow_controller1.eth[1].queue dataCapacity -1b
attr unit b
par Network.open_flow_controller1.eth[1].queue dropperClass "\"inet::queueing::PacketAtCollectionEndDropper\""
par Network.open_flow_controller1.eth[1].queue comparatorClass "\"inet::EthernetFrameTypeComparator\""
par Network.open_flow_controller1.eth[1].queue bufferModule "\"\""
par Network.open_flow_controller1.eth[1].mac typename "\"inet.linklayer.ethernet.basic.EthernetMac\""
par Network.open_flow_controller1.eth[1].mac interfaceTableModule "\"Network.open_flow_controller1.interfaceTable\""
par Network.open_flow_controller1.eth[1].mac displayStringTextFormat "\"rate: %b\\nsent: %s, rcvd: %r\\nqueue: %q, drop: %d\""
par Network.open_flow_controller1.eth[1].mac sendRawBytes false
par Network.open_flow_controller1.eth[1].mac promiscuous false
par Network.open_flow_controller1.eth[1].mac duplexMode true
par Network.open_flow_controller1.eth[1].mac mtu 1500B
attr unit B
par Network.open_flow_controller1.eth[1].mac fcsMode "\"declared\""
attr enum declared,computed
par Network.open_flow_controller1.eth[1].mac stopOperationExtraTime -1s
attr unit s
par Network.open_flow_controller1.eth[1].mac stopOperationTimeout 2s
attr unit s
par Network.open_flow_controller1.eth[1] typename "\"inet.linklayer.ethernet.EthernetInterface\""
par Network.open_flow_controller1.eth[1] displayStringTextFormat "\"%a (%i)\\n%m\""
par Network.open_flow_controller1.eth[1] recordPcap false
par Network.open_flow_controller1.eth[1] numPcapRecorders 0
par Network.open_flow_controller1.eth[1] interfaceTableModule "\"Network.open_flow_controller1.interfaceTable\""
par Network.open_flow_controller1.eth[1] protocol "\"ethernetmac\""
par Network.open_flow_controller1.eth[1] address "\"0A-AA-00-00-00-1E\""
attr mutable ""
par Network.open_flow_controller1.eth[1] duplexMode true
par Network.open_flow_controller1.eth[1] csmacdSupport false
par Network.open_flow_controller1.eth[1] bitrate 0bps
attr unit bps
par Network.open_flow_controller1.eth[1] fcsMode "\"declared\""
attr enum declared,computed
par Network.open_flow_controller1.interfaceTable typename "\"inet.networklayer.common.InterfaceTable\""
par Network.open_flow_controller1.interfaceTable displayAddresses false
par Network.open_flow_controller1.OF_Controller typename "\"openflow.openflow.controller.OF_Controller\""
par Network.open_flow_controller1.OF_Controller address "\"\""
par Network.open_flow_controller1.OF_Controller port 6633
par Network.open_flow_controller1.OF_Controller serviceTime 5.556e-06s
attr unit s
scalar Network.open_flow_controller1.OF_Controller numPacketIn 1118
scalar Network.open_flow_controller1.OF_Controller packetsPerSecondAt-0 6
scalar Network.open_flow_controller1.OF_Controller packetsPerSecondAt-1 35
scalar Network.open_flow_controller1.OF_Controller packetsPerSecondAt-2 19
scalar Network.open_flow_controller1.OF_Controller packetsPerSecondAt-3 18
scalar Network.open_flow_controller1.OF_Controller packetsPerSecondAt-4 17
scalar Network.open_flow_controller1.OF_Controller packetsPerSecondAt-5 14
scalar Network.open_flow_controller1.OF_Controller packetsPerSecondAt-6 13
scalar Network.open_flow_controller1.OF_Controller packetsPerSecondAt-7 13
scalar Network.open_flow_controller1.OF_Controller packetsPerSecondAt-8 11
scalar Network.open_flow_controller1.OF_Controller packetsPerSecondAt-9 11
scalar Network.open_flow_controller1.OF_Controller packetsPerSecondAt-10 11
scalar Network.open_flow_controller1.OF_Controller packetsPerSecondAt-11 9
scalar Network.open_flow_controller1.OF_Controller packetsPerSecondAt-12 13
scalar Network.open_flow_controller1.OF_Controller packetsPerSecondAt-13 8
scalar Network.open_flow_controller1.OF_Controller packetsPerSecondAt-14 11
scalar Network.open_flow_controller1.OF_Controller packetsPerSecondAt-15 9
scalar Network.open_flow_controller1.OF_Controller packetsPerSecondAt-16 13
scalar Network.open_flow_controller1.OF_Controller packetsPerSecondAt-17 9
scalar Network.open_flow_controller1.OF_Controller packetsPerSecondAt-18 13
scalar Network.open_flow_controller1.OF_Controller packetsPerSecondAt-19 13
scalar Network.open_flow_controller1.OF_Controller packetsPerSecondAt-20 8
scalar Network.open_flow_controller1.OF_Controller packetsPerSecondAt-21 10
scalar Network.open_flow_controller1.OF_Controller packetsPerSecondAt-22 10
scalar Network.open_flow_controller1.OF_Controller packetsPerSecondAt-23 8
scalar Network.open_flow_controller1.OF_Controller packetsPerSecondAt-24 8
scalar Network.open_flow_controller1.OF_Controller packetsPerSecondAt-25 13
scalar Network.open_flow_controller1.OF_Controller packetsPerSecondAt-26 13
scalar Network.open_flow_controller1.OF_Controller packetsPerSecondAt-27 12
scalar Network.open_flow_controller1.OF_Controller packetsPerSecondAt-28 8
scalar Network.open_flow_controller1.OF_Controller packetsPerSecondAt-29 11
scalar Network.open_flow_controller1.OF_Controller packetsPerSecondAt-30 8
scalar Network.open_flow_controller1.OF_Controller packetsPerSecondAt-31 14
scalar Network.open_flow_controller1.OF_Controller packetsPerSecondAt-32 10
scalar Network.open_flow_controller1.OF_Controller packetsPerSecondAt-33 11
scalar Network.open_flow_controller1.OF_Controller packetsPerSecondAt-34 11
scalar Network.open_flow_controller1.OF_Controller packetsPerSecondAt-35 11
scalar Network.open_flow_controller1.OF_Controller packetsPerSecondAt-36 12
scalar Network.open_flow_controller1.OF_Controller packetsPerSecondAt-37 10
scalar Network.open_flow_controller1.OF_Controller packetsPerSecondAt-38 11
scalar Network.open_flow_controller1.OF_Controller packetsPerSecondAt-39 13
scalar Network.open_flow_controller1.OF_Controller packetsPerSecondAt-40 10
scalar Network.open_flow_controller1.OF_Controller packetsPerSecondAt-41 13
scalar Network.open_flow_controller1.OF_Controller packetsPerSecondAt-42 12
scalar Network.open_flow_controller1.OF_Controller packetsPerSecondAt-43 12
scalar Network.open_flow_controller1.OF_Controller packetsPerSecondAt-44 7
scalar Network.open_flow_controller1.OF_Controller packetsPerSecondAt-45 8
scalar Network.open_flow_controller1.OF_Controller packetsPerSecondAt-46 9
scalar Network.open_flow_controller1.OF_Controller packetsPerSecondAt-47 13
scalar Network.open_flow_controller1.OF_Controller packetsPerSecondAt-48 12
scalar Network.open_flow_controller1.OF_Controller packetsPerSecondAt-49 10
scalar Network.open_flow_controller1.OF_Controller packetsPerSecondAt-50 8
scalar Network.open_flow_controller1.OF_Controller packetsPerSecondAt-51 8
scalar Network.open_flow_controller1.OF_Controller packetsPerSecondAt-52 10
scalar Network.open_flow_controller1.OF_Controller packetsPerSecondAt-53 12
scalar Network.open_flow_controller1.OF_Controller packetsPerSecondAt-54 8
scalar Network.open_flow_controller1.OF_Controller packetsPerSecondAt-55 12
scalar Network.open_flow_controller1.OF_Controller packetsPerSecondAt-56 7
scalar Network.open_flow_controller1.OF_Controller packetsPerSecondAt-57 13
scalar Network.open_flow_controller1.OF_Controller packetsPerSecondAt-58 13
scalar Network.open_flow_controller1.OF_Controller packetsPerSecondAt-59 12
scalar Network.open_flow_controller1.OF_Controller packetsPerSecondAt-60 11
scalar Network.open_flow_controller1.OF_Controller packetsPerSecondAt-61 12
scalar Network.open_flow_controller1.OF_Controller packetsPerSecondAt-62 18
scalar Network.open_flow_controller1.OF_Controller packetsPerSecondAt-63 9
scalar Network.open_flow_controller1.OF_Controller packetsPerSecondAt-64 12
scalar Network.open_flow_controller1.OF_Controller packetsPerSecondAt-65 11
scalar Network.open_flow_controller1.OF_Controller packetsPerSecondAt-66 13
scalar Network.open_flow_controller1.OF_Controller packetsPerSecondAt-67 13
scalar Network.open_flow_controller1.OF_Controller packetsPerSecondAt-68 12
scalar Network.open_flow_controller1.OF_Controller packetsPerSecondAt-69 9
scalar Network.open_flow_controller1.OF_Controller packetsPerSecondAt-70 10
scalar Network.open_flow_controller1.OF_Controller packetsPerSecondAt-71 13
scalar Network.open_flow_controller1.OF_Controller packetsPerSecondAt-72 13
scalar Network.open_flow_controller1.OF_Controller packetsPerSecondAt-73 13
scalar Network.open_flow_controller1.OF_Controller packetsPerSecondAt-74 12
scalar Network.open_flow_controller1.OF_Controller packetsPerSecondAt-75 9
scalar Network.open_flow_controller1.OF_Controller packetsPerSecondAt-76 11
scalar Network.open_flow_controller1.OF_Controller packetsPerSecondAt-77 10
scalar Network.open_flow_controller1.OF_Controller packetsPerSecondAt-78 11
scalar Network.open_flow_controller1.OF_Controller packetsPerSecondAt-79 12
scalar Network.open_flow_controller1.OF_Controller packetsPerSecondAt-80 12
scalar Network.open_flow_controller1.OF_Controller packetsPerSecondAt-81 10
scalar Network.open_flow_controller1.OF_Controller packetsPerSecondAt-82 9
scalar Network.open_flow_controller1.OF_Controller packetsPerSecondAt-83 8
scalar Network.open_flow_controller1.OF_Controller packetsPerSecondAt-84 9
scalar Network.open_flow_controller1.OF_Controller packetsPerSecondAt-85 13
scalar Network.open_flow_controller1.OF_Controller packetsPerSecondAt-86 12
scalar Network.open_flow_controller1.OF_Controller packetsPerSecondAt-87 10
scalar Network.open_flow_controller1.OF_Controller packetsPerSecondAt-88 7
scalar Network.open_flow_controller1.OF_Controller packetsPerSecondAt-89 8
scalar Network.open_flow_controller1.OF_Controller packetsPerSecondAt-90 13
scalar Network.open_flow_controller1.OF_Controller packetsPerSecondAt-91 9
scalar Network.open_flow_controller1.OF_Controller packetsPerSecondAt-92 11
scalar Network.open_flow_controller1.OF_Controller packetsPerSecondAt-93 8
scalar Network.open_flow_controller1.OF_Controller packetsPerSecondAt-94 10
scalar Network.open_flow_controller1.OF_Controller packetsPerSecondAt-95 11
scalar Network.open_flow_controller1.OF_Controller packetsPerSecondAt-96 13
scalar Network.open_flow_controller1.OF_Controller packetsPerSecondAt-97 9
scalar Network.open_flow_controller1.OF_Controller packetsPerSecondAt-98 8
scalar Network.open_flow_controller1.OF_Controller packetsPerSecondAt-99 13
par Network.open_flow_controller1 typename "\"openflow.openflow.controller.Open_Flow_Controller\""
par Network.open_flow_controller1 numControllerApps 3
par Network.open_flow_controller1 numTcpControllerApps 0
par Network.open_flow_controller1 hasTcp true
par Network.open_flow_controller1 forwarding false
par Network.open_flow_controller1 multicastForwarding false
par Network.open_flow_controller1 routingFile "\"\""
par Network.open_flow_controller1 numExtInterfaces 0
par Network.open_flow_controller1 serviceTime 5.556e-06s
attr unit s
par Network typename "\"newtcptest.simulations.Network\""

